REMARK  29 active torsions:
REMARK  status: ('A' for Active; 'I' for Inactive)
REMARK    1  A    between atoms: O_3  and  C_13 
REMARK    2  A    between atoms: O_4  and  C_15 
REMARK    3  A    between atoms: O_5  and  C_21 
REMARK    4  A    between atoms: O_6  and  C_29 
REMARK    5  A    between atoms: C_9  and  C_13 
REMARK    6  A    between atoms: C_10  and  C_15 
REMARK    7  A    between atoms: C_11  and  C_21 
REMARK    8  A    between atoms: C_13  and  C_18 
REMARK    9  A    between atoms: C_15  and  C_20 
REMARK   10  A    between atoms: C_16  and  C_22 
REMARK   11  A    between atoms: C_18  and  C_20 
REMARK   12  A    between atoms: C_21  and  C_23 
REMARK   13  A    between atoms: C_22  and  C_24 
REMARK   14  A    between atoms: C_23  and  C_25 
REMARK   15  A    between atoms: C_24  and  C_26 
REMARK   16  A    between atoms: C_25  and  C_27 
REMARK   17  A    between atoms: C_26  and  C_28 
REMARK   18  A    between atoms: C_27  and  C_29 
REMARK   19  A    between atoms: C_28  and  C_30 
REMARK   20  A    between atoms: C_29  and  C_31 
REMARK   21  A    between atoms: C_30  and  C_32 
REMARK   22  A    between atoms: C_31  and  C_33 
REMARK   23  A    between atoms: C_32  and  C_34 
REMARK   24  A    between atoms: C_33  and  C_35 
REMARK   25  A    between atoms: C_34  and  C_36 
REMARK   26  A    between atoms: C_35  and  C_37 
REMARK   27  A    between atoms: C_36  and  C_38 
REMARK   28  A    between atoms: C_37  and  C_39 
REMARK   29  A    between atoms: C_38  and  C_40 
ROOT
HETATM    1  C   LIG     1       2.860  -0.533   2.294  1.00  0.00     0.037 C 
ENDROOT
BRANCH   1   2
HETATM    2  C   LIG     1       2.770   0.682   3.227  1.00  0.00     0.147 C 
BRANCH   2   3
HETATM    3  O   LIG     1       1.423   1.177   3.216  1.00  0.00    -0.393 OA
HETATM    4  H   LIG     1       1.423   1.930   3.840  1.00  0.00     0.210 HD
ENDBRANCH   2   3
BRANCH   2   5
HETATM    5  C   LIG     1       3.172   0.398   4.682  1.00  0.00     0.150 C 
HETATM    6  O   LIG     1       3.049   1.630   5.438  1.00  0.00    -0.378 OA
HETATM    7  C   LIG     1       4.119   1.633   6.386  1.00  0.00     0.122 C 
HETATM    8  C   LIG     1       5.279   1.002   5.639  1.00  0.00     0.034 C 
HETATM    9  C   LIG     1       4.599  -0.108   4.882  1.00  0.00     0.037 C 
BRANCH   7  10
HETATM   10  C   LIG     1       4.399   3.049   6.857  1.00  0.00     0.032 C 
BRANCH  10  11
HETATM   11  C   LIG     1       5.543   3.043   7.855  1.00  0.00     0.002 C 
BRANCH  11  12
HETATM   12  C   LIG     1       5.871   4.444   8.335  1.00  0.00     0.000 C 
BRANCH  12  13
HETATM   13  C   LIG     1       7.019   4.439   9.343  1.00  0.00     0.000 C 
BRANCH  13  14
HETATM   14  C   LIG     1       8.320   3.829   8.802  1.00  0.00     0.000 C 
BRANCH  14  15
HETATM   15  C   LIG     1       9.455   3.783   9.830  1.00  0.00     0.000 C 
BRANCH  15  16
HETATM   16  C   LIG     1       9.830   5.165  10.366  1.00  0.00     0.000 C 
BRANCH  16  17
HETATM   17  C   LIG     1      10.953   5.107  11.400  1.00  0.00     0.005 C 
BRANCH  17  18
HETATM   18  C   LIG     1      11.288   6.509  11.933  1.00  0.00     0.044 C 
BRANCH  18  19
HETATM   19  C   LIG     1      12.387   6.485  12.936  1.00  0.00     0.016 A 
HETATM   20  C   LIG     1      13.557   7.121  12.961  1.00  0.00     0.018 A 
HETATM   21  C   LIG     1      14.328   6.764  14.173  1.00  0.00     0.151 A 
HETATM   22  O   LIG     1      13.483   5.840  14.860  1.00  0.00    -0.309 OA
HETATM   23  C   LIG     1      14.603   7.950  15.081  1.00  0.00     0.044 C 
HETATM   24  C   LIG     1      12.318   5.679  14.169  1.00  0.00     0.289 A 
HETATM   25  O   LIG     1      11.394   4.985  14.510  1.00  0.00    -0.260 OA
ENDBRANCH  18  19
ENDBRANCH  17  18
ENDBRANCH  16  17
ENDBRANCH  15  16
ENDBRANCH  14  15
ENDBRANCH  13  14
ENDBRANCH  12  13
ENDBRANCH  11  12
ENDBRANCH  10  11
ENDBRANCH   7  10
ENDBRANCH   2   5
ENDBRANCH   1   2
BRANCH   1  26
HETATM   26  C   LIG     1       1.984  -1.718   2.734  1.00  0.00     0.037 C 
BRANCH  26  27
HETATM   27  C   LIG     1       2.105  -2.917   1.779  1.00  0.00     0.147 C 
BRANCH  27  28
HETATM   28  O   LIG     1       1.698  -2.516   0.469  1.00  0.00    -0.393 OA
HETATM   29  H   LIG     1       1.862  -3.259  -0.136  1.00  0.00     0.210 HD
ENDBRANCH  27  28
BRANCH  27  30
HETATM   30  C   LIG     1       1.292  -4.144   2.222  1.00  0.00     0.150 C 
HETATM   31  O   LIG     1       1.617  -4.557   3.567  1.00  0.00    -0.376 OA
HETATM   32  C   LIG     1       0.383  -4.832   4.256  1.00  0.00     0.150 C 
HETATM   33  C   LIG     1      -0.678  -4.989   3.176  1.00  0.00     0.037 C 
HETATM   34  C   LIG     1      -0.218  -3.972   2.162  1.00  0.00     0.037 C 
BRANCH  32  35
HETATM   35  C   LIG     1       0.480  -5.996   5.262  1.00  0.00     0.147 C 
BRANCH  35  36
HETATM   36  O   LIG     1      -0.766  -6.135   5.958  1.00  0.00    -0.393 OA
HETATM   37  H   LIG     1      -0.932  -5.307   6.441  1.00  0.00     0.210 HD
ENDBRANCH  35  36
BRANCH  35  38
HETATM   38  C   LIG     1       0.802  -7.376   4.669  1.00  0.00     0.034 C 
BRANCH  38  39
HETATM   39  C   LIG     1       2.130  -7.495   3.926  1.00  0.00     0.005 C 
BRANCH  39  40
HETATM   40  C   LIG     1       3.360  -7.196   4.789  1.00  0.00     0.032 C 
BRANCH  40  41
HETATM   41  C   LIG     1       3.509  -8.144   5.988  1.00  0.00     0.118 C 
BRANCH  41  42
HETATM   42  O   LIG     1       3.583  -9.494   5.534  1.00  0.00    -0.396 OA
HETATM   43  H   LIG     1       2.707  -9.731   5.183  1.00  0.00     0.210 HD
ENDBRANCH  41  42
BRANCH  41  44
HETATM   44  C   LIG     1       4.748  -7.843   6.841  1.00  0.00     0.032 C 
BRANCH  44  45
HETATM   45  C   LIG     1       6.064  -7.923   6.056  1.00  0.00     0.002 C 
BRANCH  45  46
HETATM   46  C   LIG     1       7.277  -7.622   6.936  1.00  0.00     0.000 C 
BRANCH  46  47
HETATM   47  C   LIG     1       8.588  -7.713   6.149  1.00  0.00    -0.000 C 
BRANCH  47  48
HETATM   48  C   LIG     1       9.784  -7.400   7.050  1.00  0.00    -0.005 C 
HETATM   49  C   LIG     1      11.099  -7.466   6.292  1.00  0.00     0.005 C 
ENDBRANCH  47  48
ENDBRANCH  46  47
ENDBRANCH  45  46
ENDBRANCH  44  45
ENDBRANCH  41  44
ENDBRANCH  40  41
ENDBRANCH  39  40
ENDBRANCH  38  39
ENDBRANCH  35  38
ENDBRANCH  32  35
ENDBRANCH  27  30
ENDBRANCH  26  27
ENDBRANCH   1  26
TORSDOF 29
