REMARK  32 active torsions:
REMARK  status: ('A' for Active; 'I' for Inactive)
REMARK    1  A    between atoms: O_2  and  C_14 
REMARK    2  A    between atoms: O_3  and  C_15 
REMARK    3  A    between atoms: O_4  and  C_20 
REMARK    4  A    between atoms: O_5  and  C_23 
REMARK    5  A    between atoms: O_6  and  C_26 
REMARK    6  A    between atoms: O_7  and  C_33 
REMARK    7  A    between atoms: C_10  and  C_14 
REMARK    8  A    between atoms: C_11  and  C_15 
REMARK    9  A    between atoms: C_14  and  C_16 
REMARK   10  A    between atoms: C_15  and  C_17 
REMARK   11  A    between atoms: C_16  and  C_18 
REMARK   12  A    between atoms: C_17  and  C_19 
REMARK   13  A    between atoms: C_18  and  C_20 
REMARK   14  A    between atoms: C_19  and  C_22 
REMARK   15  A    between atoms: C_20  and  C_21 
REMARK   16  A    between atoms: C_21  and  C_23 
REMARK   17  A    between atoms: C_22  and  C_24 
REMARK   18  A    between atoms: C_23  and  C_25 
REMARK   19  A    between atoms: C_24  and  C_27 
REMARK   20  A    between atoms: C_25  and  C_26 
REMARK   21  A    between atoms: C_26  and  C_28 
REMARK   22  A    between atoms: C_27  and  C_29 
REMARK   23  A    between atoms: C_28  and  C_30 
REMARK   24  A    between atoms: C_29  and  C_31 
REMARK   25  A    between atoms: C_30  and  C_32 
REMARK   26  A    between atoms: C_31  and  C_34 
REMARK   27  A    between atoms: C_32  and  C_33 
REMARK   28  A    between atoms: C_33  and  C_36 
REMARK   29  A    between atoms: C_34  and  C_35 
REMARK   30  A    between atoms: C_35  and  C_37 
REMARK   31  A    between atoms: C_36  and  C_38 
REMARK   32  A    between atoms: C_37  and  C_39 
ROOT
HETATM    1  C   LIG     1       2.765   0.444   0.714  1.00  0.00     0.034 C 
ENDROOT
BRANCH   1   2
HETATM    2  C   LIG     1       2.042   0.770  -0.622  1.00  0.00     0.036 C 
BRANCH   2   3
HETATM    3  C   LIG     1       0.508   0.866  -0.515  1.00  0.00     0.147 C 
BRANCH   3   4
HETATM    4  O   LIG     1       0.012  -0.415  -0.131  1.00  0.00    -0.393 OA
HETATM    5  H   LIG     1      -0.871  -0.277   0.253  1.00  0.00     0.210 HD
ENDBRANCH   3   4
BRANCH   3   6
HETATM    6  C   LIG     1      -0.204   1.274  -1.824  1.00  0.00     0.150 C 
HETATM    7  O   LIG     1      -1.646   1.323  -1.618  1.00  0.00    -0.376 OA
HETATM    8  C   LIG     1      -2.193   2.392  -2.437  1.00  0.00     0.150 C 
HETATM    9  C   LIG     1      -1.029   2.951  -3.242  1.00  0.00     0.037 C 
HETATM   10  C   LIG     1       0.157   2.650  -2.354  1.00  0.00     0.037 C 
BRANCH   8  11
HETATM   11  C   LIG     1      -3.388   1.872  -3.276  1.00  0.00     0.147 C 
BRANCH  11  12
HETATM   12  O   LIG     1      -4.431   1.448  -2.386  1.00  0.00    -0.393 OA
HETATM   13  H   LIG     1      -3.991   1.077  -1.598  1.00  0.00     0.210 HD
ENDBRANCH  11  12
BRANCH  11  14
HETATM   14  C   LIG     1      -3.964   2.954  -4.206  1.00  0.00     0.034 C 
BRANCH  14  15
HETATM   15  C   LIG     1      -5.116   2.475  -5.105  1.00  0.00     0.002 C 
BRANCH  15  16
HETATM   16  C   LIG     1      -5.651   3.567  -6.051  1.00  0.00     0.000 C 
BRANCH  16  17
HETATM   17  C   LIG     1      -6.218   4.797  -5.337  1.00  0.00     0.000 C 
BRANCH  17  18
HETATM   18  C   LIG     1      -6.715   5.856  -6.330  1.00  0.00     0.000 C 
BRANCH  18  19
HETATM   19  C   LIG     1      -7.303   7.090  -5.632  1.00  0.00     0.000 C 
BRANCH  19  20
HETATM   20  C   LIG     1      -8.502   6.786  -4.729  1.00  0.00     0.000 C 
BRANCH  20  21
HETATM   21  C   LIG     1      -9.671   6.155  -5.490  1.00  0.00     0.000 C 
BRANCH  21  22
HETATM   22  C   LIG     1     -10.839   5.853  -4.558  1.00  0.00     0.000 C 
BRANCH  22  23
HETATM   23  C   LIG     1     -12.013   5.223  -5.312  1.00  0.00    -0.000 C 
BRANCH  23  24
HETATM   24  C   LIG     1     -13.195   4.917  -4.391  1.00  0.00    -0.005 C 
HETATM   25  C   LIG     1     -13.736   6.165  -3.709  1.00  0.00     0.005 C 
ENDBRANCH  23  24
ENDBRANCH  22  23
ENDBRANCH  21  22
ENDBRANCH  20  21
ENDBRANCH  19  20
ENDBRANCH  18  19
ENDBRANCH  17  18
ENDBRANCH  16  17
ENDBRANCH  15  16
ENDBRANCH  14  15
ENDBRANCH  11  14
ENDBRANCH   8  11
ENDBRANCH   3   6
ENDBRANCH   2   3
ENDBRANCH   1   2
BRANCH   1  26
HETATM   26  C   LIG     1       2.483  -0.947   1.325  1.00  0.00     0.120 C 
BRANCH  26  27
HETATM   27  O   LIG     1       2.848  -1.943   0.375  1.00  0.00    -0.395 OA
HETATM   28  H   LIG     1       3.814  -1.988   0.327  1.00  0.00     0.210 HD
ENDBRANCH  26  27
BRANCH  26  29
HETATM   29  C   LIG     1       3.253  -1.172   2.643  1.00  0.00     0.063 C 
BRANCH  29  30
HETATM   30  C   LIG     1       2.931  -2.514   3.360  1.00  0.00     0.123 C 
BRANCH  30  31
HETATM   31  O   LIG     1       3.207  -3.632   2.527  1.00  0.00    -0.395 OA
HETATM   32  H   LIG     1       3.946  -3.416   1.942  1.00  0.00     0.210 HD
ENDBRANCH  30  31
BRANCH  30  33
HETATM   33  C   LIG     1       3.799  -2.667   4.621  1.00  0.00     0.063 C 
BRANCH  33  34
HETATM   34  C   LIG     1       3.511  -3.903   5.512  1.00  0.00     0.120 C 
BRANCH  34  35
HETATM   35  O   LIG     1       2.146  -3.846   5.943  1.00  0.00    -0.395 OA
HETATM   36  H   LIG     1       2.097  -3.226   6.690  1.00  0.00     0.210 HD
ENDBRANCH  34  35
BRANCH  34  37
HETATM   37  C   LIG     1       3.752  -5.338   4.978  1.00  0.00     0.032 C 
BRANCH  37  38
HETATM   38  C   LIG     1       5.195  -5.652   4.579  1.00  0.00     0.005 C 
BRANCH  38  39
HETATM   39  C   LIG     1       5.440  -7.098   4.097  1.00  0.00     0.032 C 
BRANCH  39  40
HETATM   40  C   LIG     1       5.156  -8.278   5.055  1.00  0.00     0.122 C 
BRANCH  40  41
HETATM   41  O   LIG     1       5.426  -9.507   4.361  1.00  0.00    -0.395 OA
HETATM   42  H   LIG     1       6.301  -9.430   3.944  1.00  0.00     0.210 HD
ENDBRANCH  40  41
BRANCH  40  43
HETATM   43  C   LIG     1       5.853  -8.335   6.432  1.00  0.00     0.076 C 
BRANCH  43  44
HETATM   44  C   LIG     1       7.347  -8.398   6.428  1.00  0.00     0.018 C 
HETATM   45  C   LIG     1       8.263  -9.345   6.233  1.00  0.00     0.018 C 
HETATM   46  C   LIG     1       9.637  -8.765   6.238  1.00  0.00     0.151 C 
HETATM   47  O   LIG     1       9.419  -7.385   6.565  1.00  0.00    -0.309 OA
HETATM   48  C   LIG     1      10.313  -8.875   4.875  1.00  0.00     0.044 C 
HETATM   49  C   LIG     1       8.101  -7.190   6.811  1.00  0.00     0.289 C 
HETATM   50  O   LIG     1       7.614  -6.206   7.289  1.00  0.00    -0.260 OA
ENDBRANCH  43  44
ENDBRANCH  40  43
ENDBRANCH  39  40
ENDBRANCH  38  39
ENDBRANCH  37  38
ENDBRANCH  34  37
ENDBRANCH  33  34
ENDBRANCH  30  33
ENDBRANCH  29  30
ENDBRANCH  26  29
ENDBRANCH   1  26
TORSDOF 32
