REMARK  24 active torsions:
REMARK  status: ('A' for Active; 'I' for Inactive)
REMARK    1  A    between atoms: O_2  and  C_13 
REMARK    2  A    between atoms: O_3  and  C_14 
REMARK    3  A    between atoms: O_4  and  C_19 
REMARK    4  A    between atoms: O_5  and  C_26 
REMARK    5  A    between atoms: O_6  and  C_33 
REMARK    6  A    between atoms: C_9  and  C_13 
REMARK    7  A    between atoms: C_10  and  C_14 
REMARK    8  A    between atoms: C_13  and  C_15 
REMARK    9  A    between atoms: C_14  and  C_16 
REMARK   10  A    between atoms: C_15  and  C_17 
REMARK   11  A    between atoms: C_16  and  C_18 
REMARK   12  A    between atoms: C_17  and  C_19 
REMARK   13  A    between atoms: C_18  and  C_20 
REMARK   14  A    between atoms: C_19  and  C_21 
REMARK   15  A    between atoms: C_20  and  C_22 
REMARK   16  A    between atoms: C_21  and  C_23 
REMARK   17  A    between atoms: C_22  and  C_25 
REMARK   18  A    between atoms: C_25  and  C_27 
REMARK   19  A    between atoms: C_27  and  C_30 
REMARK   20  A    between atoms: C_30  and  C_32 
REMARK   21  A    between atoms: C_32  and  C_34 
REMARK   22  A    between atoms: C_34  and  C_36 
REMARK   23  A    between atoms: C_35  and  C_37 
REMARK   24  A    between atoms: C_36  and  C_38 
ROOT
HETATM    1  C   LIG     1       0.302  -4.923  -2.798  1.00  0.00     0.036 C 
ENDROOT
BRANCH   1   2
HETATM    2  C   LIG     1      -0.099  -3.583  -3.336  1.00  0.00     0.147 C 
BRANCH   2   3
HETATM    3  O   LIG     1      -0.077  -3.674  -4.761  1.00  0.00    -0.393 OA
HETATM    4  H   LIG     1       0.830  -3.488  -5.050  1.00  0.00     0.210 HD
ENDBRANCH   2   3
BRANCH   2   5
HETATM    5  C   LIG     1      -1.461  -2.991  -2.847  1.00  0.00     0.150 C 
HETATM    6  O   LIG     1      -2.661  -3.721  -3.200  1.00  0.00    -0.376 OA
HETATM    7  C   LIG     1      -3.383  -4.202  -2.018  1.00  0.00     0.150 C 
HETATM    8  C   LIG     1      -2.684  -3.555  -0.825  1.00  0.00     0.037 C 
HETATM    9  C   LIG     1      -1.483  -2.779  -1.349  1.00  0.00     0.037 C 
BRANCH   7  10
HETATM   10  C   LIG     1      -4.949  -4.231  -2.291  1.00  0.00     0.147 C 
BRANCH  10  11
HETATM   11  O   LIG     1      -5.368  -2.964  -2.799  1.00  0.00    -0.393 OA
HETATM   12  H   LIG     1      -5.621  -3.137  -3.725  1.00  0.00     0.210 HD
ENDBRANCH  10  11
BRANCH  10  13
HETATM   13  C   LIG     1      -6.037  -4.700  -1.250  1.00  0.00     0.034 C 
BRANCH  13  14
HETATM   14  C   LIG     1      -7.510  -4.628  -1.813  1.00  0.00     0.002 C 
BRANCH  14  15
HETATM   15  C   LIG     1      -8.693  -5.089  -0.912  1.00  0.00     0.000 C 
BRANCH  15  16
HETATM   16  C   LIG     1      -8.713  -6.533  -0.352  1.00  0.00     0.000 C 
BRANCH  16  17
HETATM   17  C   LIG     1      -8.880  -7.713  -1.334  1.00  0.00     0.000 C 
BRANCH  17  18
HETATM   18  C   LIG     1      -7.852  -7.976  -2.424  1.00  0.00     0.000 C 
BRANCH  18  19
HETATM   19  C   LIG     1      -6.394  -8.163  -2.180  1.00  0.00     0.000 C 
BRANCH  19  20
HETATM   20  C   LIG     1      -6.065  -9.302  -1.339  1.00  0.00     0.000 C 
BRANCH  20  21
HETATM   21  C   LIG     1      -4.137  -9.253  -1.101  1.00  0.00     0.000 C 
BRANCH  21  22
HETATM   22  C   LIG     1      -3.188 -11.084  -0.649  1.00  0.00    -0.000 C 
BRANCH  22  23
HETATM   23  C   LIG     1      -3.779 -11.379   1.276  1.00  0.00    -0.005 C 
HETATM   24  C   LIG     1      -3.559 -12.676   1.854  1.00  0.00     0.005 C 
ENDBRANCH  22  23
ENDBRANCH  21  22
ENDBRANCH  20  21
ENDBRANCH  19  20
ENDBRANCH  18  19
ENDBRANCH  17  18
ENDBRANCH  16  17
ENDBRANCH  15  16
ENDBRANCH  14  15
ENDBRANCH  13  14
ENDBRANCH  10  13
ENDBRANCH   7  10
ENDBRANCH   2   5
ENDBRANCH   1   2
BRANCH   1  25
HETATM   25  C   LIG     1      -0.675  -5.930  -3.324  1.00  0.00     0.034 C 
BRANCH  25  26
HETATM   26  C   LIG     1      -0.183  -7.289  -2.924  1.00  0.00     0.118 C 
BRANCH  26  27
HETATM   27  O   LIG     1      -0.634  -6.944  -1.643  1.00  0.00    -0.396 OA
HETATM   28  H   LIG     1       0.267  -6.734  -1.447  1.00  0.00     0.210 HD
ENDBRANCH  26  27
BRANCH  26  29
HETATM   29  C   LIG     1      -0.884  -8.550  -3.250  1.00  0.00     0.032 C 
BRANCH  29  30
HETATM   30  C   LIG     1      -0.797 -10.563  -2.391  1.00  0.00     0.011 C 
HETATM   31  C   LIG     1      -1.345 -10.650  -0.189  1.00  0.00     0.032 C 
HETATM   32  C   LIG     1      -2.857  -9.811   0.475  1.00  0.00     0.118 C 
HETATM   33  C   LIG     1      -4.826 -10.661  -0.208  1.00  0.00     0.032 C 
HETATM   34  C   LIG     1      -4.753 -10.774  -2.261  1.00  0.00     0.005 C 
HETATM   35  C   LIG     1      -3.485 -10.898  -3.178  1.00  0.00     0.032 C 
HETATM   36  C   LIG     1      -2.422  -9.775  -3.085  1.00  0.00     0.122 C 
HETATM   37  C   LIG     1      -1.095  -9.363  -1.544  1.00  0.00     0.070 C 
BRANCH  32  38
HETATM   38  O   LIG     1      -2.557  -8.230   0.531  1.00  0.00    -0.396 OA
HETATM   39  H   LIG     1      -3.367  -7.893   0.948  1.00  0.00     0.210 HD
ENDBRANCH  32  38
BRANCH  36  40
HETATM   40  O   LIG     1      -3.095  -8.469  -3.235  1.00  0.00    -0.395 OA
HETATM   41  H   LIG     1      -2.794  -8.226  -2.275  1.00  0.00     0.210 HD
ENDBRANCH  36  40
BRANCH  37  42
HETATM   42  C   LIG     1       0.361  -9.033  -1.027  1.00  0.00     0.018 C 
HETATM   43  C   LIG     1       0.593  -8.088  -0.198  1.00  0.00     0.018 C 
HETATM   44  C   LIG     1       2.011  -7.934  -0.210  1.00  0.00     0.151 C 
HETATM   45  O   LIG     1       2.451  -9.277  -0.196  1.00  0.00    -0.309 OA
HETATM   46  C   LIG     1       1.948  -7.139   1.042  1.00  0.00     0.044 C 
HETATM   47  C   LIG     1       1.536 -10.004  -0.892  1.00  0.00     0.289 C 
HETATM   48  O   LIG     1       1.642 -11.192  -1.173  1.00  0.00    -0.260 OA
ENDBRANCH  37  42
ENDBRANCH  29  30
ENDBRANCH  26  29
ENDBRANCH  25  26
ENDBRANCH   1  25
TORSDOF 24
