REMARK  31 active torsions:
REMARK  status: ('A' for Active; 'I' for Inactive)
REMARK    1  A    between atoms: O_2  and  C_13 
REMARK    2  A    between atoms: O_3  and  C_15 
REMARK    3  A    between atoms: O_4  and  C_18 
REMARK    4  A    between atoms: O_5  and  C_20 
REMARK    5  A    between atoms: O_6  and  C_26 
REMARK    6  A    between atoms: C_9  and  C_13 
REMARK    7  A    between atoms: C_10  and  C_14 
REMARK    8  A    between atoms: C_13  and  C_15 
REMARK    9  A    between atoms: C_14  and  C_17 
REMARK   10  A    between atoms: C_15  and  C_16 
REMARK   11  A    between atoms: C_16  and  C_18 
REMARK   12  A    between atoms: C_17  and  C_19 
REMARK   13  A    between atoms: C_18  and  C_20 
REMARK   14  A    between atoms: C_19  and  C_21 
REMARK   15  A    between atoms: C_20  and  C_22 
REMARK   16  A    between atoms: C_21  and  C_24 
REMARK   17  A    between atoms: C_22  and  C_23 
REMARK   18  A    between atoms: C_23  and  C_25 
REMARK   19  A    between atoms: C_24  and  C_26 
REMARK   20  A    between atoms: C_25  and  C_27 
REMARK   21  A    between atoms: C_26  and  C_29 
REMARK   22  A    between atoms: C_27  and  C_28 
REMARK   23  A    between atoms: C_28  and  C_30 
REMARK   24  A    between atoms: C_29  and  C_33 
REMARK   25  A    between atoms: C_30  and  C_31 
REMARK   26  A    between atoms: C_31  and  C_32 
REMARK   27  A    between atoms: C_32  and  C_34 
REMARK   28  A    between atoms: C_34  and  C_35 
REMARK   29  A    between atoms: C_35  and  C_37 
REMARK   30  A    between atoms: C_37  and  C_40 
REMARK   31  A    between atoms: C_40  and  C_41 
ROOT
HETATM    1  C   LIG     1       1.274  -0.864   0.870  1.00  0.00     0.175 C 
ENDROOT
BRANCH   1   2
HETATM    2  O   LIG     1       0.229  -1.845   0.734  1.00  0.00    -0.390 OA
HETATM    3  H   LIG     1      -0.550  -1.348   0.414  1.00  0.00     0.210 HD
ENDBRANCH   1   2
BRANCH   1   4
HETATM    4  C   LIG     1       1.466  -0.141  -0.486  1.00  0.00     0.153 C 
HETATM    5  O   LIG     1       0.231   0.558  -0.826  1.00  0.00    -0.378 OA
HETATM    6  C   LIG     1       0.543   1.953  -1.006  1.00  0.00     0.122 C 
HETATM    7  C   LIG     1       2.008   1.991  -1.403  1.00  0.00     0.034 C 
HETATM    8  C   LIG     1       2.576   0.905  -0.528  1.00  0.00     0.037 C 
BRANCH   6   9
HETATM    9  C   LIG     1      -0.412   2.612  -2.006  1.00  0.00     0.032 C 
BRANCH   9  10
HETATM   10  C   LIG     1      -0.100   4.097  -2.164  1.00  0.00     0.002 C 
BRANCH  10  11
HETATM   11  C   LIG     1      -1.161   4.897  -2.933  1.00  0.00     0.000 C 
BRANCH  11  12
HETATM   12  C   LIG     1      -0.681   6.350  -2.989  1.00  0.00     0.002 C 
BRANCH  12  13
HETATM   13  C   LIG     1      -1.684   7.371  -3.528  1.00  0.00     0.032 C 
BRANCH  13  14
HETATM   14  C   LIG     1      -1.098   8.802  -3.547  1.00  0.00     0.122 C 
BRANCH  14  15
HETATM   15  O   LIG     1      -0.687   9.160  -2.220  1.00  0.00    -0.395 OA
HETATM   16  H   LIG     1      -1.436   9.009  -1.619  1.00  0.00     0.210 HD
ENDBRANCH  14  15
BRANCH  14  17
HETATM   17  C   LIG     1       0.121   9.015  -4.473  1.00  0.00     0.076 C 
BRANCH  17  18
HETATM   18  C   LIG     1      -0.169   9.128  -5.930  1.00  0.00     0.018 C 
HETATM   19  C   LIG     1      -0.899  10.022  -6.601  1.00  0.00     0.018 C 
HETATM   20  C   LIG     1      -0.876   9.748  -8.055  1.00  0.00     0.151 C 
HETATM   21  O   LIG     1      -0.094   8.559  -8.164  1.00  0.00    -0.309 OA
HETATM   22  C   LIG     1      -0.205  10.825  -8.893  1.00  0.00     0.044 C 
HETATM   23  C   LIG     1       0.434   8.267  -6.946  1.00  0.00     0.289 C 
HETATM   24  O   LIG     1       1.299   7.409  -6.738  1.00  0.00    -0.260 OA
ENDBRANCH  17  18
ENDBRANCH  14  17
ENDBRANCH  13  14
ENDBRANCH  12  13
ENDBRANCH  11  12
ENDBRANCH  10  11
ENDBRANCH   9  10
ENDBRANCH   6   9
ENDBRANCH   1   4
BRANCH   1  25
HETATM   25  C   LIG     1       2.537  -1.561   1.431  1.00  0.00     0.151 C 
BRANCH  25  26
HETATM   26  O   LIG     1       3.589  -0.606   1.599  1.00  0.00    -0.393 OA
HETATM   27  H   LIG     1       4.359  -1.087   1.951  1.00  0.00     0.210 HD
ENDBRANCH  25  26
BRANCH  25  28
HETATM   28  C   LIG     1       2.262  -2.200   2.815  1.00  0.00     0.068 C 
BRANCH  28  29
HETATM   29  C   LIG     1       2.418  -3.726   2.811  1.00  0.00     0.149 C 
BRANCH  29  30
HETATM   30  O   LIG     1       3.770  -3.955   2.404  1.00  0.00    -0.393 OA
HETATM   31  H   LIG     1       3.761  -4.720   1.803  1.00  0.00     0.210 HD
ENDBRANCH  29  30
BRANCH  29  32
HETATM   32  C   LIG     1       2.117  -4.346   4.209  1.00  0.00     0.147 C 
BRANCH  32  33
HETATM   33  O   LIG     1       0.762  -4.088   4.599  1.00  0.00    -0.393 OA
HETATM   34  H   LIG     1       0.659  -3.130   4.720  1.00  0.00     0.210 HD
ENDBRANCH  32  33
BRANCH  32  35
HETATM   35  C   LIG     1       2.293  -5.877   4.287  1.00  0.00     0.034 C 
BRANCH  35  36
HETATM   36  C   LIG     1       3.678  -6.410   3.929  1.00  0.00     0.002 C 
BRANCH  36  37
HETATM   37  C   LIG     1       4.751  -5.796   4.815  1.00  0.00     0.000 C 
BRANCH  37  38
HETATM   38  C   LIG     1       6.142  -6.290   4.433  1.00  0.00     0.000 C 
BRANCH  38  39
HETATM   39  C   LIG     1       7.208  -5.718   5.359  1.00  0.00     0.000 C 
BRANCH  39  40
HETATM   40  C   LIG     1       7.000  -6.137   6.819  1.00  0.00     0.000 C 
BRANCH  40  41
HETATM   41  C   LIG     1       8.012  -5.497   7.765  1.00  0.00     0.000 C 
BRANCH  41  42
HETATM   42  C   LIG     1       7.966  -3.969   7.741  1.00  0.00     0.000 C 
BRANCH  42  43
HETATM   43  C   LIG     1       6.590  -3.410   8.128  1.00  0.00     0.000 C 
BRANCH  43  44
HETATM   44  C   LIG     1       6.536  -1.885   8.080  1.00  0.00     0.000 C 
BRANCH  44  45
HETATM   45  C   LIG     1       6.804  -1.354   6.675  1.00  0.00     0.000 C 
BRANCH  45  46
HETATM   46  C   LIG     1       6.775   0.169   6.623  1.00  0.00    -0.000 C 
BRANCH  46  47
HETATM   47  C   LIG     1       7.068   0.697   5.217  1.00  0.00    -0.005 C 
HETATM   48  C   LIG     1       8.448   0.303   4.708  1.00  0.00     0.005 C 
ENDBRANCH  46  47
ENDBRANCH  45  46
ENDBRANCH  44  45
ENDBRANCH  43  44
ENDBRANCH  42  43
ENDBRANCH  41  42
ENDBRANCH  40  41
ENDBRANCH  39  40
ENDBRANCH  38  39
ENDBRANCH  37  38
ENDBRANCH  36  37
ENDBRANCH  35  36
ENDBRANCH  32  35
ENDBRANCH  29  32
ENDBRANCH  28  29
ENDBRANCH  25  28
ENDBRANCH   1  25
TORSDOF 31
