REMARK  30 active torsions:
REMARK  status: ('A' for Active; 'I' for Inactive)
REMARK    1  A    between atoms: O_2  and  C_12 
REMARK    2  A    between atoms: O_3  and  C_17 
REMARK    3  A    between atoms: O_4  and  C_19 
REMARK    4  A    between atoms: O_5  and  C_29 
REMARK    5  A    between atoms: C_8  and  C_12 
REMARK    6  A    between atoms: C_9  and  C_13 
REMARK    7  A    between atoms: C_12  and  C_14 
REMARK    8  A    between atoms: C_13  and  C_15 
REMARK    9  A    between atoms: C_14  and  C_16 
REMARK   10  A    between atoms: C_15  and  C_18 
REMARK   11  A    between atoms: C_16  and  C_17 
REMARK   12  A    between atoms: C_17  and  C_19 
REMARK   13  A    between atoms: C_18  and  C_20 
REMARK   14  A    between atoms: C_19  and  C_21 
REMARK   15  A    between atoms: C_20  and  C_22 
REMARK   16  A    between atoms: C_21  and  C_23 
REMARK   17  A    between atoms: C_22  and  C_24 
REMARK   18  A    between atoms: C_23  and  C_25 
REMARK   19  A    between atoms: C_24  and  C_26 
REMARK   20  A    between atoms: C_25  and  C_27 
REMARK   21  A    between atoms: C_26  and  C_29 
REMARK   22  A    between atoms: C_27  and  C_28 
REMARK   23  A    between atoms: C_28  and  C_30 
REMARK   24  A    between atoms: C_29  and  C_32 
REMARK   25  A    between atoms: C_30  and  C_31 
REMARK   26  A    between atoms: C_31  and  C_33 
REMARK   27  A    between atoms: C_32  and  C_35 
REMARK   28  A    between atoms: C_33  and  C_34 
REMARK   29  A    between atoms: C_34  and  C_36 
REMARK   30  A    between atoms: C_36  and  C_40 
ROOT
HETATM    1  O   LIG     1       0.936   0.867   1.005  1.00  0.00    -0.378 OA
HETATM    2  C   LIG     1       0.549  -0.207   0.128  1.00  0.00     0.150 C 
HETATM    3  C   LIG     1       1.781   1.784   0.273  1.00  0.00     0.122 C 
HETATM    4  C   LIG     1       1.315  -0.031  -1.177  1.00  0.00     0.037 C 
HETATM    5  C   LIG     1       1.642   1.441  -1.196  1.00  0.00     0.034 C 
ENDROOT
BRANCH   2   6
HETATM    6  C   LIG     1       0.710  -1.600   0.783  1.00  0.00     0.147 C 
BRANCH   6   7
HETATM    7  O   LIG     1       0.270  -2.608  -0.141  1.00  0.00    -0.393 OA
HETATM    8  H   LIG     1      -0.703  -2.609  -0.122  1.00  0.00     0.210 HD
ENDBRANCH   6   7
BRANCH   6   9
HETATM    9  C   LIG     1       2.138  -1.976   1.219  1.00  0.00     0.037 C 
BRANCH   9  10
HETATM   10  C   LIG     1       2.837  -1.082   2.252  1.00  0.00     0.037 C 
BRANCH  10  11
HETATM   11  C   LIG     1       2.209  -0.958   3.653  1.00  0.00     0.147 C 
BRANCH  11  12
HETATM   12  O   LIG     1       0.849  -0.533   3.573  1.00  0.00    -0.393 OA
HETATM   13  H   LIG     1       0.814   0.194   2.913  1.00  0.00     0.210 HD
ENDBRANCH  11  12
BRANCH  11  14
HETATM   14  C   LIG     1       2.337  -2.254   4.494  1.00  0.00     0.147 C 
BRANCH  14  15
HETATM   15  O   LIG     1       3.704  -2.676   4.476  1.00  0.00    -0.393 OA
HETATM   16  H   LIG     1       3.720  -3.630   4.659  1.00  0.00     0.210 HD
ENDBRANCH  14  15
BRANCH  14  17
HETATM   17  C   LIG     1       1.904  -2.039   5.958  1.00  0.00     0.034 C 
BRANCH  17  18
HETATM   18  C   LIG     1       2.028  -3.271   6.873  1.00  0.00     0.002 C 
BRANCH  18  19
HETATM   19  C   LIG     1       1.100  -4.423   6.478  1.00  0.00     0.000 C 
BRANCH  19  20
HETATM   20  C   LIG     1       1.209  -5.602   7.447  1.00  0.00     0.000 C 
BRANCH  20  21
HETATM   21  C   LIG     1       0.268  -6.740   7.035  1.00  0.00     0.000 C 
BRANCH  21  22
HETATM   22  C   LIG     1       0.317  -7.928   8.002  1.00  0.00     0.000 C 
BRANCH  22  23
HETATM   23  C   LIG     1      -0.049  -7.574   9.455  1.00  0.00     0.000 C 
BRANCH  23  24
HETATM   24  C   LIG     1      -1.456  -6.984   9.624  1.00  0.00     0.000 C 
BRANCH  24  25
HETATM   25  C   LIG     1      -1.829  -6.632  11.074  1.00  0.00     0.000 C 
BRANCH  25  26
HETATM   26  C   LIG     1      -0.922  -5.638  11.821  1.00  0.00    -0.000 C 
BRANCH  26  27
HETATM   27  C   LIG     1      -0.899  -4.221  11.237  1.00  0.00    -0.005 C 
HETATM   28  C   LIG     1      -0.081  -3.250  12.088  1.00  0.00     0.005 C 
ENDBRANCH  26  27
ENDBRANCH  25  26
ENDBRANCH  24  25
ENDBRANCH  23  24
ENDBRANCH  22  23
ENDBRANCH  21  22
ENDBRANCH  20  21
ENDBRANCH  19  20
ENDBRANCH  18  19
ENDBRANCH  17  18
ENDBRANCH  14  17
ENDBRANCH  11  14
ENDBRANCH  10  11
ENDBRANCH   9  10
ENDBRANCH   6   9
ENDBRANCH   2   6
BRANCH   3  29
HETATM   29  C   LIG     1       1.392   3.210   0.644  1.00  0.00     0.032 C 
BRANCH  29  30
HETATM   30  C   LIG     1       2.238   4.282  -0.049  1.00  0.00     0.002 C 
BRANCH  30  31
HETATM   31  C   LIG     1       1.822   5.704   0.344  1.00  0.00     0.000 C 
BRANCH  31  32
HETATM   32  C   LIG     1       2.009   5.998   1.838  1.00  0.00     0.000 C 
BRANCH  32  33
HETATM   33  C   LIG     1       1.594   7.416   2.242  1.00  0.00     0.000 C 
BRANCH  33  34
HETATM   34  C   LIG     1       0.132   7.768   1.941  1.00  0.00     0.002 C 
BRANCH  34  35
HETATM   35  C   LIG     1      -0.890   6.840   2.626  1.00  0.00     0.032 C 
BRANCH  35  36
HETATM   36  C   LIG     1      -2.346   7.194   2.276  1.00  0.00     0.122 C 
BRANCH  36  37
HETATM   37  O   LIG     1      -2.555   7.005   0.869  1.00  0.00    -0.395 OA
HETATM   38  H   LIG     1      -1.909   7.550   0.391  1.00  0.00     0.210 HD
ENDBRANCH  36  37
BRANCH  36  39
HETATM   39  C   LIG     1      -3.393   6.296   2.969  1.00  0.00     0.076 C 
BRANCH  39  40
HETATM   40  C   LIG     1      -3.385   6.245   4.455  1.00  0.00     0.018 C 
HETATM   41  C   LIG     1      -3.720   5.223   5.258  1.00  0.00     0.018 C 
HETATM   42  C   LIG     1      -3.622   5.614   6.676  1.00  0.00     0.151 C 
HETATM   43  O   LIG     1      -3.036   6.925   6.629  1.00  0.00    -0.309 OA
HETATM   44  C   LIG     1      -4.978   5.760   7.350  1.00  0.00     0.044 C 
HETATM   45  C   LIG     1      -3.047   7.336   5.348  1.00  0.00     0.289 C 
HETATM   46  O   LIG     1      -2.774   8.483   4.983  1.00  0.00    -0.260 OA
ENDBRANCH  39  40
ENDBRANCH  36  39
ENDBRANCH  35  36
ENDBRANCH  34  35
ENDBRANCH  33  34
ENDBRANCH  32  33
ENDBRANCH  31  32
ENDBRANCH  30  31
ENDBRANCH  29  30
ENDBRANCH   3  29
TORSDOF 30
