REMARK  32 active torsions:
REMARK  status: ('A' for Active; 'I' for Inactive)
REMARK    1  A    between atoms: O_2  and  C_13 
REMARK    2  A    between atoms: O_3  and  C_14 
REMARK    3  A    between atoms: O_4  and  C_22 
REMARK    4  A    between atoms: O_6  and  C_37 
REMARK    5  A    between atoms: C_9  and  C_13 
REMARK    6  A    between atoms: C_10  and  C_14 
REMARK    7  A    between atoms: C_13  and  C_15 
REMARK    8  A    between atoms: C_14  and  C_16 
REMARK    9  A    between atoms: C_15  and  C_17 
REMARK   10  A    between atoms: C_16  and  C_18 
REMARK   11  A    between atoms: C_17  and  C_19 
REMARK   12  A    between atoms: C_18  and  C_21 
REMARK   13  A    between atoms: C_19  and  C_20 
REMARK   14  A    between atoms: C_20  and  C_22 
REMARK   15  A    between atoms: C_21  and  C_23 
REMARK   16  A    between atoms: C_22  and  C_24 
REMARK   17  A    between atoms: C_23  and  C_27 
REMARK   18  A    between atoms: C_24  and  C_25 
REMARK   19  A    between atoms: C_25  and  C_26 
REMARK   20  A    between atoms: C_26  and  C_28 
REMARK   21  A    between atoms: C_27  and  C_29 
REMARK   22  A    between atoms: C_28  and  C_31 
REMARK   23  A    between atoms: C_29  and  C_30 
REMARK   24  A    between atoms: C_30  and  C_32 
REMARK   25  A    between atoms: C_31  and  C_33 
REMARK   26  A    between atoms: C_32  and  C_34 
REMARK   27  A    between atoms: C_33  and  C_36 
REMARK   28  A    between atoms: C_34  and  C_35 
REMARK   29  A    between atoms: C_35  and  C_37 
REMARK   30  A    between atoms: C_36  and  C_39 
REMARK   31  A    between atoms: C_37  and  C_38 
REMARK   32  A    between atoms: C_38  and  C_40 
ROOT
HETATM    1  O   LIG     1       1.246  -0.582   0.553  1.00  0.00    -0.376 OA
HETATM    2  C   LIG     1       2.586  -0.558   1.126  1.00  0.00     0.150 C 
HETATM    3  C   LIG     1       1.076   0.577  -0.320  1.00  0.00     0.150 C 
HETATM    4  C   LIG     1       3.185   0.789   0.706  1.00  0.00     0.037 C 
HETATM    5  C   LIG     1       2.471   1.105  -0.584  1.00  0.00     0.037 C 
ENDROOT
BRANCH   3   6
HETATM    6  C   LIG     1       0.266   0.226  -1.604  1.00  0.00     0.147 C 
BRANCH   6   7
HETATM    7  O   LIG     1      -1.059  -0.141  -1.208  1.00  0.00    -0.393 OA
HETATM    8  H   LIG     1      -0.963  -0.698  -0.413  1.00  0.00     0.210 HD
ENDBRANCH   6   7
BRANCH   6   9
HETATM    9  C   LIG     1       0.159   1.402  -2.601  1.00  0.00     0.034 C 
BRANCH   9  10
HETATM   10  C   LIG     1      -0.595   1.145  -3.928  1.00  0.00     0.003 C 
BRANCH  10  11
HETATM   11  C   LIG     1       0.022   0.078  -4.841  1.00  0.00     0.007 C 
BRANCH  11  12
HETATM   12  C   LIG     1      -0.640   0.006  -6.231  1.00  0.00     0.078 C 
BRANCH  12  13
HETATM   13  C   LIG     1      -2.121  -0.367  -6.245  1.00  0.00     0.127 C 
HETATM   14  O   LIG     1      -2.608  -1.123  -5.404  1.00  0.00    -0.298 OA
BRANCH  13  15
HETATM   15  C   LIG     1      -2.977   0.193  -7.382  1.00  0.00     0.078 C 
BRANCH  15  16
HETATM   16  C   LIG     1      -3.597   1.547  -7.007  1.00  0.00     0.007 C 
BRANCH  16  17
HETATM   17  C   LIG     1      -4.439   2.168  -8.142  1.00  0.00     0.000 C 
BRANCH  17  18
HETATM   18  C   LIG     1      -5.004   3.559  -7.789  1.00  0.00     0.002 C 
BRANCH  18  19
HETATM   19  C   LIG     1      -5.885   4.258  -8.861  1.00  0.00     0.032 C 
BRANCH  19  20
HETATM   20  C   LIG     1      -5.220   4.597 -10.205  1.00  0.00     0.122 C 
BRANCH  20  21
HETATM   21  O   LIG     1      -4.886   3.414 -10.927  1.00  0.00    -0.395 OA
HETATM   22  H   LIG     1      -3.969   3.188 -10.707  1.00  0.00     0.210 HD
ENDBRANCH  20  21
BRANCH  20  23
HETATM   23  C   LIG     1      -6.071   5.479 -11.148  1.00  0.00     0.076 C 
BRANCH  23  24
HETATM   24  C   LIG     1      -7.335   4.896 -11.692  1.00  0.00     0.018 A 
HETATM   25  C   LIG     1      -7.576   4.237 -12.826  1.00  0.00     0.013 A 
HETATM   26  C   LIG     1      -9.009   4.038 -13.038  1.00  0.00     0.207 A 
HETATM   27  O   LIG     1      -9.619   4.637 -11.888  1.00  0.00    -0.314 OA
HETATM   28  C   LIG     1      -8.641   5.125 -11.072  1.00  0.00     0.289 A 
HETATM   29  O   LIG     1      -8.816   5.680 -10.000  1.00  0.00    -0.260 OA
ENDBRANCH  23  24
ENDBRANCH  20  23
ENDBRANCH  19  20
ENDBRANCH  18  19
ENDBRANCH  17  18
ENDBRANCH  16  17
ENDBRANCH  15  16
ENDBRANCH  13  15
ENDBRANCH  12  13
ENDBRANCH  11  12
ENDBRANCH  10  11
ENDBRANCH   9  10
ENDBRANCH   6   9
ENDBRANCH   3   6
BRANCH   2  30
HETATM   30  C   LIG     1       2.579  -0.751   2.681  1.00  0.00     0.147 C 
BRANCH  30  31
HETATM   31  O   LIG     1       1.777   0.287   3.257  1.00  0.00    -0.393 OA
HETATM   32  H   LIG     1       0.969   0.327   2.711  1.00  0.00     0.210 HD
ENDBRANCH  30  31
BRANCH  30  33
HETATM   33  C   LIG     1       2.056  -2.119   3.202  1.00  0.00     0.034 C 
BRANCH  33  34
HETATM   34  C   LIG     1       2.141  -2.294   4.760  1.00  0.00     0.003 C 
BRANCH  34  35
HETATM   35  C   LIG     1       1.516  -3.627   5.279  1.00  0.00     0.002 C 
BRANCH  35  36
HETATM   36  C   LIG     1       1.549  -3.844   6.830  1.00  0.00     0.032 C 
BRANCH  36  37
HETATM   37  C   LIG     1       0.882  -5.188   7.291  1.00  0.00     0.118 C 
BRANCH  37  38
HETATM   38  O   LIG     1       1.683  -6.253   6.780  1.00  0.00    -0.396 OA
HETATM   39  H   LIG     1       1.084  -6.981   6.542  1.00  0.00     0.210 HD
ENDBRANCH  37  38
BRANCH  37  40
HETATM   40  C   LIG     1       0.761  -5.338   8.834  1.00  0.00     0.032 C 
BRANCH  40  41
HETATM   41  C   LIG     1       0.200  -6.670   9.410  1.00  0.00     0.002 C 
BRANCH  41  42
HETATM   42  C   LIG     1      -1.260  -7.100   9.114  1.00  0.00     0.000 C 
BRANCH  42  43
HETATM   43  C   LIG     1      -2.380  -6.166   9.626  1.00  0.00     0.000 C 
BRANCH  43  44
HETATM   44  C   LIG     1      -3.818  -6.703   9.353  1.00  0.00     0.000 C 
BRANCH  44  45
HETATM   45  C   LIG     1      -4.919  -5.731   9.835  1.00  0.00     0.000 C 
BRANCH  45  46
HETATM   46  C   LIG     1      -6.385  -6.183   9.631  1.00  0.00    -0.000 C 
BRANCH  46  47
HETATM   47  C   LIG     1      -6.806  -6.411   8.175  1.00  0.00    -0.005 C 
HETATM   48  C   LIG     1      -8.279  -6.798   8.040  1.00  0.00     0.005 C 
ENDBRANCH  46  47
ENDBRANCH  45  46
ENDBRANCH  44  45
ENDBRANCH  43  44
ENDBRANCH  42  43
ENDBRANCH  41  42
ENDBRANCH  40  41
ENDBRANCH  37  40
ENDBRANCH  36  37
ENDBRANCH  35  36
ENDBRANCH  34  35
ENDBRANCH  33  34
ENDBRANCH  30  33
ENDBRANCH   2  30
TORSDOF 32
