REMARK  12 active torsions:
REMARK  status: ('A' for Active; 'I' for Inactive)
REMARK    1  A    between atoms: O_1  and  C_13 
REMARK    2  A    between atoms: O_1  and  C_20 
REMARK    3  A    between atoms: O_2  and  C_11 
REMARK    4  A    between atoms: O_3  and  C_15 
REMARK    5  A    between atoms: O_5  and  C_21 
REMARK    6  A    between atoms: O_6  and  C_22 
REMARK    7  A    between atoms: O_7  and  C_24 
REMARK    8  A    between atoms: O_8  and  C_26 
REMARK    9  A    between atoms: O_9  and  C_27 
REMARK   10  A    between atoms: C_11  and  C_19 
REMARK   11  A    between atoms: C_23  and  C_26 
REMARK   12  A    between atoms: C_25  and  C_27 
ROOT
HETATM    1  C   LIG     1       2.087  -0.391  -7.812  1.00  0.00    -0.010 C 
HETATM    2  C   LIG     1       1.982   0.432  -6.451  1.00  0.00     0.088 C 
HETATM    3  C   LIG     1       1.864  -0.482  -5.163  1.00  0.00     0.052 C 
HETATM    4  C   LIG     1       0.839  -1.659  -5.323  1.00  0.00     0.160 C 
HETATM    5  C   LIG     1       1.069  -1.552  -7.812  1.00  0.00     0.046 C 
HETATM    6  C   LIG     1       1.122  -2.472  -6.596  1.00  0.00     0.148 C 
HETATM    7  C   LIG     1       1.772   0.465  -9.072  1.00  0.00     0.018 C 
HETATM    8  C   LIG     1       3.510  -0.937  -8.093  1.00  0.00     0.018 C 
HETATM    9  C   LIG     1       3.209  -0.984  -4.595  1.00  0.00     0.016 C 
ENDROOT
BRANCH   4  10
HETATM   10  O   LIG     1      -0.509  -1.126  -5.339  1.00  0.00    -0.350 OA
BRANCH  10  11
HETATM   11  C   LIG     1      -1.554  -2.109  -5.205  1.00  0.00     0.292 C 
HETATM   12  O   LIG     1      -1.817  -2.748  -6.459  1.00  0.00    -0.348 OA
HETATM   13  C   LIG     1      -2.809  -2.176  -7.316  1.00  0.00     0.179 C 
HETATM   14  C   LIG     1      -3.222  -0.750  -6.933  1.00  0.00     0.180 C 
HETATM   15  C   LIG     1      -3.776  -0.830  -5.514  1.00  0.00     0.183 C 
HETATM   16  C   LIG     1      -2.789  -1.463  -4.526  1.00  0.00     0.204 C 
BRANCH  13  17
HETATM   17  C   LIG     1      -2.348  -2.286  -8.780  1.00  0.00     0.198 C 
BRANCH  17  18
HETATM   18  O   LIG     1      -3.364  -1.846  -9.680  1.00  0.00    -0.398 OA
HETATM   19  H   LIG     1      -2.999  -1.949 -10.579  1.00  0.00     0.209 HD
ENDBRANCH  17  18
ENDBRANCH  13  17
BRANCH  14  20
HETATM   20  O   LIG     1      -4.270  -0.224  -7.759  1.00  0.00    -0.390 OA
HETATM   21  H   LIG     1      -4.107  -0.549  -8.671  1.00  0.00     0.210 HD
ENDBRANCH  14  20
BRANCH  15  22
HETATM   22  O   LIG     1      -4.175   0.472  -5.064  1.00  0.00    -0.390 OA
HETATM   23  H   LIG     1      -4.608   0.880  -5.844  1.00  0.00     0.210 HD
ENDBRANCH  15  22
BRANCH  16  24
HETATM   24  O   LIG     1      -3.498  -2.469  -3.769  1.00  0.00    -0.388 OA
HETATM   25  H   LIG     1      -4.242  -2.011  -3.337  1.00  0.00     0.210 HD
ENDBRANCH  16  24
ENDBRANCH  10  11
ENDBRANCH   4  10
BRANCH   6  26
HETATM   26  O   LIG     1       2.361  -3.165  -6.536  1.00  0.00    -0.393 OA
HETATM   27  H   LIG     1       2.264  -3.881  -5.883  1.00  0.00     0.210 HD
ENDBRANCH   6  26
BRANCH   2  28
HETATM   28  O   LIG     1       3.129   1.286  -6.334  1.00  0.00    -0.385 OA
HETATM   29  H   LIG     1       3.924   0.732  -6.325  1.00  0.00     0.211 HD
ENDBRANCH   2  28
BRANCH   2  30
HETATM   30  C   LIG     1       0.794   1.411  -6.401  1.00  0.00     0.010 C 
HETATM   31  C   LIG     1       0.684   2.581  -7.051  1.00  0.00     0.003 C 
BRANCH  31  32
HETATM   32  C   LIG     1      -0.467   3.538  -6.890  1.00  0.00     0.136 C 
HETATM   33  C   LIG     1       0.025   4.973  -6.804  1.00  0.00     0.043 C 
BRANCH  32  34
HETATM   34  O   LIG     1      -1.320   3.399  -8.016  1.00  0.00    -0.392 OA
HETATM   35  H   LIG     1      -0.788   3.577  -8.810  1.00  0.00     0.210 HD
ENDBRANCH  32  34
ENDBRANCH  31  32
ENDBRANCH   2  30
TORSDOF 12
