REMARK  28 active torsions:
REMARK  status: ('A' for Active; 'I' for Inactive)
REMARK    1  A    between atoms: O_2  and  C_12 
REMARK    2  A    between atoms: O_3  and  C_23 
REMARK    3  A    between atoms: O_4  and  C_24 
REMARK    4  A    between atoms: O_5  and  C_29 
REMARK    5  A    between atoms: C_8  and  C_12 
REMARK    6  A    between atoms: C_9  and  C_13 
REMARK    7  A    between atoms: C_12  and  C_14 
REMARK    8  A    between atoms: C_13  and  C_15 
REMARK    9  A    between atoms: C_14  and  C_16 
REMARK   10  A    between atoms: C_15  and  C_17 
REMARK   11  A    between atoms: C_16  and  C_18 
REMARK   12  A    between atoms: C_17  and  C_19 
REMARK   13  A    between atoms: C_18  and  C_20 
REMARK   14  A    between atoms: C_19  and  C_22 
REMARK   15  A    between atoms: C_20  and  C_21 
REMARK   16  A    between atoms: C_21  and  C_23 
REMARK   17  A    between atoms: C_22  and  C_25 
REMARK   18  A    between atoms: C_23  and  C_24 
REMARK   19  A    between atoms: C_24  and  C_26 
REMARK   20  A    between atoms: C_25  and  C_27 
REMARK   21  A    between atoms: C_26  and  C_28 
REMARK   22  A    between atoms: C_27  and  C_29 
REMARK   23  A    between atoms: C_28  and  C_30 
REMARK   24  A    between atoms: C_29  and  C_31 
REMARK   25  A    between atoms: C_30  and  C_32 
REMARK   26  A    between atoms: C_31  and  C_34 
REMARK   27  A    between atoms: C_32  and  C_33 
REMARK   28  A    between atoms: C_33  and  C_35 
ROOT
HETATM    1  O   LIG     1       0.767  -1.413  -3.127  1.00  0.00    -0.378 OA
HETATM    2  C   LIG     1       2.110  -0.857  -3.217  1.00  0.00     0.150 C 
HETATM    3  C   LIG     1      -0.222  -0.367  -3.212  1.00  0.00     0.122 C 
HETATM    4  C   LIG     1       1.945   0.656  -3.481  1.00  0.00     0.037 C 
HETATM    5  C   LIG     1       0.474   0.891  -3.687  1.00  0.00     0.034 C 
ENDROOT
BRANCH   2   6
HETATM    6  C   LIG     1       2.782  -1.040  -1.858  1.00  0.00     0.147 C 
BRANCH   6   7
HETATM    7  O   LIG     1       1.794  -0.328  -1.127  1.00  0.00    -0.393 OA
HETATM    8  H   LIG     1       1.002  -0.887  -1.194  1.00  0.00     0.210 HD
ENDBRANCH   6   7
BRANCH   6   9
HETATM    9  C   LIG     1       2.929  -2.476  -1.276  1.00  0.00     0.034 C 
BRANCH   9  10
HETATM   10  C   LIG     1       3.746  -2.708   0.040  1.00  0.00     0.002 C 
BRANCH  10  11
HETATM   11  C   LIG     1       3.168  -2.134   1.315  1.00  0.00     0.000 C 
BRANCH  11  12
HETATM   12  C   LIG     1       3.226  -0.626   1.249  1.00  0.00     0.002 C 
BRANCH  12  13
HETATM   13  C   LIG     1       4.463   0.287   1.194  1.00  0.00     0.034 C 
BRANCH  13  14
HETATM   14  C   LIG     1       4.254   1.877   1.159  1.00  0.00     0.147 C 
BRANCH  14  15
HETATM   15  O   LIG     1       3.460   2.250  -0.008  1.00  0.00    -0.393 OA
HETATM   16  H   LIG     1       2.623   1.755  -0.048  1.00  0.00     0.210 HD
ENDBRANCH  14  15
BRANCH  14  17
HETATM   17  C   LIG     1       3.573   2.498   2.388  1.00  0.00     0.147 C 
BRANCH  17  18
HETATM   18  O   LIG     1       2.562   1.589   2.516  1.00  0.00    -0.393 OA
HETATM   19  H   LIG     1       2.060   1.551   1.704  1.00  0.00     0.210 HD
ENDBRANCH  17  18
BRANCH  17  20
HETATM   20  C   LIG     1       4.051   2.455   3.842  1.00  0.00     0.034 C 
BRANCH  20  21
HETATM   21  C   LIG     1       3.981   1.057   4.537  1.00  0.00     0.002 C 
BRANCH  21  22
HETATM   22  C   LIG     1       2.589   0.423   4.995  1.00  0.00     0.000 C 
BRANCH  22  23
HETATM   23  C   LIG     1       1.420   0.018   4.023  1.00  0.00     0.000 C 
BRANCH  23  24
HETATM   24  C   LIG     1       0.453   1.110   3.402  1.00  0.00    -0.000 C 
BRANCH  24  25
HETATM   25  C   LIG     1      -0.374   0.747   2.119  1.00  0.00    -0.005 C 
HETATM   26  C   LIG     1       0.227   0.165   0.875  1.00  0.00     0.005 C 
ENDBRANCH  24  25
ENDBRANCH  23  24
ENDBRANCH  22  23
ENDBRANCH  21  22
ENDBRANCH  20  21
ENDBRANCH  17  20
ENDBRANCH  14  17
ENDBRANCH  13  14
ENDBRANCH  12  13
ENDBRANCH  11  12
ENDBRANCH  10  11
ENDBRANCH   9  10
ENDBRANCH   6   9
ENDBRANCH   2   6
BRANCH   3  27
HETATM   27  C   LIG     1      -1.395  -0.874  -4.048  1.00  0.00     0.032 C 
BRANCH  27  28
HETATM   28  C   LIG     1      -1.005  -1.347  -5.458  1.00  0.00     0.002 C 
BRANCH  28  29
HETATM   29  C   LIG     1      -0.436  -0.278  -6.410  1.00  0.00     0.000 C 
BRANCH  29  30
HETATM   30  C   LIG     1      -1.344   0.975  -6.491  1.00  0.00     0.000 C 
BRANCH  30  31
HETATM   31  C   LIG     1      -0.728   2.174  -7.237  1.00  0.00     0.000 C 
BRANCH  31  32
HETATM   32  C   LIG     1      -1.755   3.314  -7.426  1.00  0.00     0.002 C 
BRANCH  32  33
HETATM   33  C   LIG     1      -1.240   4.499  -8.263  1.00  0.00     0.032 C 
BRANCH  33  34
HETATM   34  C   LIG     1      -2.243   5.672  -8.394  1.00  0.00     0.122 C 
BRANCH  34  35
HETATM   35  O   LIG     1      -1.626   6.695  -9.179  1.00  0.00    -0.395 OA
HETATM   36  H   LIG     1      -1.049   7.203  -8.581  1.00  0.00     0.210 HD
ENDBRANCH  34  35
BRANCH  34  37
HETATM   37  C   LIG     1      -3.573   5.302  -9.077  1.00  0.00     0.076 C 
BRANCH  37  38
HETATM   38  C   LIG     1      -4.611   6.354  -9.140  1.00  0.00     0.018 C 
HETATM   39  C   LIG     1      -5.579   6.534 -10.017  1.00  0.00     0.018 C 
HETATM   40  C   LIG     1      -6.559   7.567  -9.559  1.00  0.00     0.151 C 
HETATM   41  O   LIG     1      -6.136   7.820  -8.220  1.00  0.00    -0.309 OA
HETATM   42  C   LIG     1      -6.556   8.910 -10.274  1.00  0.00     0.044 C 
HETATM   43  C   LIG     1      -4.885   7.368  -8.045  1.00  0.00     0.289 C 
HETATM   44  O   LIG     1      -4.116   7.703  -7.218  1.00  0.00    -0.260 OA
ENDBRANCH  37  38
ENDBRANCH  34  37
ENDBRANCH  33  34
ENDBRANCH  32  33
ENDBRANCH  31  32
ENDBRANCH  30  31
ENDBRANCH  29  30
ENDBRANCH  28  29
ENDBRANCH  27  28
ENDBRANCH   3  27
TORSDOF 28
