REMARK  29 active torsions:
REMARK  status: ('A' for Active; 'I' for Inactive)
REMARK    1  A    between atoms: O_2  and  C_13 
REMARK    2  A    between atoms: O_3  and  C_31 
REMARK    3  A    between atoms: O_4  and  C_30 
REMARK    4  A    between atoms: O_5  and  C_32 
REMARK    5  A    between atoms: C_8  and  C_12 
REMARK    6  A    between atoms: C_9  and  C_13 
REMARK    7  A    between atoms: C_12  and  C_14 
REMARK    8  A    between atoms: C_13  and  C_15 
REMARK    9  A    between atoms: C_14  and  C_16 
REMARK   10  A    between atoms: C_15  and  C_18 
REMARK   11  A    between atoms: C_16  and  C_17 
REMARK   12  A    between atoms: C_17  and  C_19 
REMARK   13  A    between atoms: C_18  and  C_22 
REMARK   14  A    between atoms: C_19  and  C_20 
REMARK   15  A    between atoms: C_20  and  C_21 
REMARK   16  A    between atoms: C_21  and  C_23 
REMARK   17  A    between atoms: C_23  and  C_24 
REMARK   18  A    between atoms: C_24  and  C_25 
REMARK   19  A    between atoms: C_25  and  C_26 
REMARK   20  A    between atoms: C_26  and  C_28 
REMARK   21  A    between atoms: C_27  and  C_29 
REMARK   22  A    between atoms: C_28  and  C_31 
REMARK   23  A    between atoms: C_29  and  C_30 
REMARK   24  A    between atoms: C_30  and  C_32 
REMARK   25  A    between atoms: C_31  and  C_33 
REMARK   26  A    between atoms: C_32  and  C_34 
REMARK   27  A    between atoms: C_33  and  C_35 
REMARK   28  A    between atoms: C_34  and  C_36 
REMARK   29  A    between atoms: C_36  and  C_38 
ROOT
HETATM    1  O   LIG     1       2.036  -5.122   0.068  1.00  0.00    -0.378 OA
HETATM    2  C   LIG     1       2.780  -4.345  -0.894  1.00  0.00     0.122 C 
HETATM    3  C   LIG     1       2.861  -6.170   0.633  1.00  0.00     0.150 C 
HETATM    4  C   LIG     1       4.078  -5.078  -1.173  1.00  0.00     0.034 C 
HETATM    5  C   LIG     1       4.052  -6.307  -0.305  1.00  0.00     0.037 C 
ENDROOT
BRANCH   2   6
HETATM    6  C   LIG     1       2.043  -4.168  -2.243  1.00  0.00     0.032 C 
BRANCH   6   7
HETATM    7  C   LIG     1       2.918  -3.409  -3.284  1.00  0.00     0.002 C 
BRANCH   7   8
HETATM    8  C   LIG     1       2.319  -3.154  -4.678  1.00  0.00     0.000 C 
BRANCH   8   9
HETATM    9  C   LIG     1       1.990  -4.332  -5.658  1.00  0.00     0.000 C 
BRANCH   9  10
HETATM   10  C   LIG     1       3.120  -5.128  -6.430  1.00  0.00     0.000 C 
BRANCH  10  11
HETATM   11  C   LIG     1       2.546  -6.081  -7.602  1.00  0.00     0.000 C 
BRANCH  11  12
HETATM   12  C   LIG     1       3.508  -7.129  -8.321  1.00  0.00     0.000 C 
BRANCH  12  13
HETATM   13  C   LIG     1       2.973  -8.241  -9.314  1.00  0.00     0.000 C 
BRANCH  13  14
HETATM   14  C   LIG     1       4.130  -8.906 -10.151  1.00  0.00     0.000 C 
BRANCH  14  15
HETATM   15  C   LIG     1       5.266  -9.551  -9.365  1.00  0.00     0.000 C 
BRANCH  15  16
HETATM   16  C   LIG     1       6.396 -10.094 -10.255  1.00  0.00     0.002 C 
BRANCH  16  17
HETATM   17  C   LIG     1       7.461 -10.868  -9.466  1.00  0.00     0.032 C 
BRANCH  17  18
HETATM   18  C   LIG     1       7.774 -10.297  -8.064  1.00  0.00     0.122 C 
BRANCH  18  19
HETATM   19  O   LIG     1       6.668 -10.486  -7.174  1.00  0.00    -0.395 OA
HETATM   20  H   LIG     1       6.773  -9.844  -6.449  1.00  0.00     0.210 HD
ENDBRANCH  18  19
BRANCH  18  21
HETATM   21  C   LIG     1       8.944 -11.024  -7.412  1.00  0.00     0.076 C 
BRANCH  21  22
HETATM   22  C   LIG     1      10.190 -11.014  -8.197  1.00  0.00     0.018 C 
HETATM   23  C   LIG     1      11.129 -11.942  -8.252  1.00  0.00     0.018 C 
HETATM   24  C   LIG     1      12.262 -11.486  -9.088  1.00  0.00     0.151 C 
HETATM   25  O   LIG     1      11.787 -10.260  -9.669  1.00  0.00    -0.309 OA
HETATM   26  C   LIG     1      13.451 -11.179  -8.198  1.00  0.00     0.044 C 
HETATM   27  C   LIG     1      10.572  -9.928  -9.158  1.00  0.00     0.289 C 
HETATM   28  O   LIG     1       9.944  -8.985  -9.456  1.00  0.00    -0.260 OA
ENDBRANCH  21  22
ENDBRANCH  18  21
ENDBRANCH  17  18
ENDBRANCH  16  17
ENDBRANCH  15  16
ENDBRANCH  14  15
ENDBRANCH  13  14
ENDBRANCH  12  13
ENDBRANCH  11  12
ENDBRANCH  10  11
ENDBRANCH   9  10
ENDBRANCH   8   9
ENDBRANCH   7   8
ENDBRANCH   6   7
ENDBRANCH   2   6
BRANCH   3  29
HETATM   29  C   LIG     1       3.201  -5.964   2.151  1.00  0.00     0.147 C 
BRANCH  29  30
HETATM   30  O   LIG     1       3.850  -4.706   2.342  1.00  0.00    -0.393 OA
HETATM   31  H   LIG     1       4.598  -4.679   1.719  1.00  0.00     0.210 HD
ENDBRANCH  29  30
BRANCH  29  32
HETATM   32  C   LIG     1       1.931  -6.082   3.046  1.00  0.00     0.038 C 
BRANCH  32  33
HETATM   33  C   LIG     1       2.081  -5.806   4.554  1.00  0.00     0.029 C 
BRANCH  33  34
HETATM   34  C   LIG     1       2.890  -6.861   5.258  1.00  0.00    -0.030 C 
HETATM   35  C   LIG     1       4.199  -6.754   5.536  1.00  0.00    -0.028 C 
BRANCH  35  36
HETATM   36  C   LIG     1       5.034  -5.553   5.189  1.00  0.00     0.061 C 
BRANCH  36  37
HETATM   37  C   LIG     1       6.220  -5.270   6.114  1.00  0.00     0.150 C 
BRANCH  37  38
HETATM   38  O   LIG     1       6.914  -4.126   5.601  1.00  0.00    -0.393 OA
HETATM   39  H   LIG     1       6.271  -3.405   5.526  1.00  0.00     0.210 HD
ENDBRANCH  37  38
BRANCH  37  40
HETATM   40  C   LIG     1       5.889  -5.115   7.619  1.00  0.00     0.147 C 
BRANCH  40  41
HETATM   41  O   LIG     1       7.126  -4.986   8.334  1.00  0.00    -0.393 OA
HETATM   42  H   LIG     1       6.922  -4.864   9.275  1.00  0.00     0.210 HD
ENDBRANCH  40  41
BRANCH  40  43
HETATM   43  C   LIG     1       4.915  -4.003   8.073  1.00  0.00     0.034 C 
BRANCH  43  44
HETATM   44  C   LIG     1       5.336  -2.532   7.903  1.00  0.00     0.002 C 
BRANCH  44  45
HETATM   45  C   LIG     1       4.259  -1.526   8.354  1.00  0.00    -0.004 C 
HETATM   46  C   LIG     1       3.895  -1.584   9.829  1.00  0.00     0.005 C 
ENDBRANCH  44  45
ENDBRANCH  43  44
ENDBRANCH  40  43
ENDBRANCH  37  40
ENDBRANCH  36  37
ENDBRANCH  35  36
ENDBRANCH  33  34
ENDBRANCH  32  33
ENDBRANCH  29  32
ENDBRANCH   3  29
TORSDOF 29
