REMARK  30 active torsions:
REMARK  status: ('A' for Active; 'I' for Inactive)
REMARK    1  A    between atoms: O_2  and  C_11 
REMARK    2  A    between atoms: O_3  and  C_21 
REMARK    3  A    between atoms: O_4  and  C_23 
REMARK    4  A    between atoms: C_7  and  C_11 
REMARK    5  A    between atoms: C_8  and  C_12 
REMARK    6  A    between atoms: C_11  and  C_13 
REMARK    7  A    between atoms: C_12  and  C_14 
REMARK    8  A    between atoms: C_13  and  C_15 
REMARK    9  A    between atoms: C_14  and  C_16 
REMARK   10  A    between atoms: C_15  and  C_17 
REMARK   11  A    between atoms: C_16  and  C_18 
REMARK   12  A    between atoms: C_17  and  C_19 
REMARK   13  A    between atoms: C_18  and  C_20 
REMARK   14  A    between atoms: C_19  and  C_21 
REMARK   15  A    between atoms: C_20  and  C_22 
REMARK   16  A    between atoms: C_21  and  C_23 
REMARK   17  A    between atoms: C_22  and  C_24 
REMARK   18  A    between atoms: C_23  and  C_26 
REMARK   19  A    between atoms: C_24  and  C_25 
REMARK   20  A    between atoms: C_25  and  C_27 
REMARK   21  A    between atoms: C_26  and  C_29 
REMARK   22  A    between atoms: C_27  and  C_28 
REMARK   23  A    between atoms: C_28  and  C_30 
REMARK   24  A    between atoms: C_29  and  C_32 
REMARK   25  A    between atoms: C_30  and  C_31 
REMARK   26  A    between atoms: C_31  and  C_33 
REMARK   27  A    between atoms: C_34  and  C_37 
REMARK   28  A    between atoms: C_37  and  C_39 
REMARK   29  A    between atoms: C_39  and  C_40 
REMARK   30  A    between atoms: C_40  and  C_42 
ROOT
HETATM    1  O   LIG     1      11.250  -5.791   0.508  1.00  0.00    -0.378 OA
HETATM    2  C   LIG     1      12.393  -6.656   0.264  1.00  0.00     0.150 C 
HETATM    3  C   LIG     1      11.616  -4.853   1.538  1.00  0.00     0.122 C 
HETATM    4  C   LIG     1      13.563  -5.714   0.431  1.00  0.00     0.037 C 
HETATM    5  C   LIG     1      13.141  -4.961   1.677  1.00  0.00     0.034 C 
ENDROOT
BRANCH   2   6
HETATM    6  C   LIG     1      12.271  -7.401  -1.087  1.00  0.00     0.147 C 
BRANCH   6   7
HETATM    7  O   LIG     1      11.135  -8.266  -0.932  1.00  0.00    -0.393 OA
HETATM    8  H   LIG     1      10.992  -8.709  -1.779  1.00  0.00     0.210 HD
ENDBRANCH   6   7
BRANCH   6   9
HETATM    9  C   LIG     1      13.476  -8.292  -1.481  1.00  0.00     0.034 C 
BRANCH   9  10
HETATM   10  C   LIG     1      13.315  -9.118  -2.788  1.00  0.00     0.003 C 
BRANCH  10  11
HETATM   11  C   LIG     1      13.160  -8.370  -4.126  1.00  0.00     0.003 C 
BRANCH  11  12
HETATM   12  C   LIG     1      14.376  -7.607  -4.665  1.00  0.00     0.034 C 
BRANCH  12  13
HETATM   13  C   LIG     1      14.144  -7.031  -6.083  1.00  0.00     0.147 C 
BRANCH  13  14
HETATM   14  O   LIG     1      15.401  -6.467  -6.485  1.00  0.00    -0.393 OA
HETATM   15  H   LIG     1      15.459  -6.505  -7.454  1.00  0.00     0.210 HD
ENDBRANCH  13  14
BRANCH  13  16
HETATM   16  C   LIG     1      12.985  -5.984  -6.141  1.00  0.00     0.147 C 
BRANCH  16  17
HETATM   17  O   LIG     1      13.162  -4.987  -5.132  1.00  0.00    -0.393 OA
HETATM   18  H   LIG     1      12.424  -4.358  -5.190  1.00  0.00     0.210 HD
ENDBRANCH  16  17
BRANCH  16  19
HETATM   19  C   LIG     1      12.856  -5.314  -7.511  1.00  0.00     0.038 C 
BRANCH  19  20
HETATM   20  C   LIG     1      11.688  -4.321  -7.641  1.00  0.00     0.029 C 
BRANCH  20  21
HETATM   21  C   LIG     1      10.264  -4.789  -7.488  1.00  0.00    -0.031 C 
HETATM   22  C   LIG     1       9.269  -4.690  -8.392  1.00  0.00    -0.031 C 
BRANCH  22  23
HETATM   23  C   LIG     1       9.300  -4.299  -9.853  1.00  0.00     0.027 C 
BRANCH  23  24
HETATM   24  C   LIG     1       9.893  -2.932 -10.229  1.00  0.00     0.004 C 
BRANCH  24  25
HETATM   25  C   LIG     1       9.152  -1.755  -9.575  1.00  0.00    -0.000 C 
BRANCH  25  26
HETATM   26  C   LIG     1       9.766  -0.394  -9.933  1.00  0.00    -0.005 C 
HETATM   27  C   LIG     1       9.068   0.790  -9.266  1.00  0.00     0.005 C 
ENDBRANCH  25  26
ENDBRANCH  24  25
ENDBRANCH  23  24
ENDBRANCH  22  23
ENDBRANCH  20  21
ENDBRANCH  19  20
ENDBRANCH  16  19
ENDBRANCH  13  16
ENDBRANCH  12  13
ENDBRANCH  11  12
ENDBRANCH  10  11
ENDBRANCH   9  10
ENDBRANCH   6   9
ENDBRANCH   2   6
BRANCH   3  28
HETATM   28  C   LIG     1      10.924  -5.176   2.871  1.00  0.00     0.032 C 
BRANCH  28  29
HETATM   29  C   LIG     1       9.409  -5.033   2.935  1.00  0.00     0.002 C 
BRANCH  29  30
HETATM   30  C   LIG     1       8.528  -5.873   2.014  1.00  0.00     0.000 C 
BRANCH  30  31
HETATM   31  C   LIG     1       7.053  -5.587   2.356  1.00  0.00     0.000 C 
BRANCH  31  32
HETATM   32  C   LIG     1       6.647  -4.109   2.165  1.00  0.00     0.000 C 
BRANCH  32  33
HETATM   33  C   LIG     1       5.235  -3.864   2.689  1.00  0.00     0.000 C 
BRANCH  33  34
HETATM   34  C   LIG     1       4.650  -2.436   2.513  1.00  0.00     0.000 C 
BRANCH  34  35
HETATM   35  C   LIG     1       5.178  -1.124   3.231  1.00  0.00     0.000 C 
BRANCH  35  36
HETATM   36  C   LIG     1       6.582  -0.508   2.958  1.00  0.00     0.000 C 
BRANCH  36  37
HETATM   37  C   LIG     1       6.880   0.878   3.639  1.00  0.00     0.000 C 
BRANCH  37  38
HETATM   38  C   LIG     1       6.899   1.015   5.180  1.00  0.00     0.005 C 
BRANCH  38  39
HETATM   39  C   LIG     1       7.865   0.130   6.001  1.00  0.00     0.044 C 
BRANCH  39  40
HETATM   40  C   LIG     1       9.344   0.339   5.827  1.00  0.00     0.016 C 
HETATM   41  C   LIG     1      10.192   0.009   4.848  1.00  0.00     0.018 C 
HETATM   42  C   LIG     1      11.569   0.511   5.130  1.00  0.00     0.151 C 
HETATM   43  O   LIG     1      11.406   1.291   6.300  1.00  0.00    -0.309 OA
HETATM   44  C   LIG     1      12.655  -0.477   5.537  1.00  0.00     0.044 C 
HETATM   45  C   LIG     1      10.164   1.068   6.831  1.00  0.00     0.289 C 
HETATM   46  O   LIG     1       9.823   1.455   7.894  1.00  0.00    -0.260 OA
ENDBRANCH  39  40
ENDBRANCH  38  39
ENDBRANCH  37  38
ENDBRANCH  36  37
ENDBRANCH  35  36
ENDBRANCH  34  35
ENDBRANCH  33  34
ENDBRANCH  32  33
ENDBRANCH  31  32
ENDBRANCH  30  31
ENDBRANCH  29  30
ENDBRANCH  28  29
ENDBRANCH   3  28
TORSDOF 30
