REMARK  32 active torsions:
REMARK  status: ('A' for Active; 'I' for Inactive)
REMARK    1  A    between atoms: O_2  and  C_14 
REMARK    2  A    between atoms: O_3  and  C_20 
REMARK    3  A    between atoms: O_4  and  C_21 
REMARK    4  A    between atoms: O_5  and  C_22 
REMARK    5  A    between atoms: O_6  and  C_23 
REMARK    6  A    between atoms: O_7  and  C_29 
REMARK    7  A    between atoms: C_10  and  C_14 
REMARK    8  A    between atoms: C_11  and  C_15 
REMARK    9  A    between atoms: C_14  and  C_16 
REMARK   10  A    between atoms: C_15  and  C_17 
REMARK   11  A    between atoms: C_16  and  C_18 
REMARK   12  A    between atoms: C_17  and  C_19 
REMARK   13  A    between atoms: C_18  and  C_20 
REMARK   14  A    between atoms: C_19  and  C_21 
REMARK   15  A    between atoms: C_20  and  C_22 
REMARK   16  A    between atoms: C_21  and  C_23 
REMARK   17  A    between atoms: C_22  and  C_24 
REMARK   18  A    between atoms: C_23  and  C_25 
REMARK   19  A    between atoms: C_24  and  C_26 
REMARK   20  A    between atoms: C_25  and  C_27 
REMARK   21  A    between atoms: C_26  and  C_28 
REMARK   22  A    between atoms: C_27  and  C_29 
REMARK   23  A    between atoms: C_28  and  C_30 
REMARK   24  A    between atoms: C_29  and  C_32 
REMARK   25  A    between atoms: C_30  and  C_31 
REMARK   26  A    between atoms: C_31  and  C_33 
REMARK   27  A    between atoms: C_32  and  C_35 
REMARK   28  A    between atoms: C_33  and  C_34 
REMARK   29  A    between atoms: C_34  and  C_36 
REMARK   30  A    between atoms: C_36  and  C_37 
REMARK   31  A    between atoms: C_37  and  C_40 
REMARK   32  A    between atoms: C_40  and  C_42 
ROOT
HETATM    1  O   LIG     1       0.248  -1.658  -3.901  1.00  0.00    -0.378 OA
HETATM    2  C   LIG     1       1.560  -2.246  -3.930  1.00  0.00     0.150 C 
HETATM    3  C   LIG     1       0.391  -0.261  -4.062  1.00  0.00     0.122 C 
HETATM    4  C   LIG     1       2.547  -1.086  -3.796  1.00  0.00     0.037 C 
HETATM    5  C   LIG     1       1.849  -0.064  -4.636  1.00  0.00     0.034 C 
ENDROOT
BRANCH   2   6
HETATM    6  C   LIG     1       1.546  -3.231  -2.776  1.00  0.00     0.147 C 
BRANCH   6   7
HETATM    7  O   LIG     1       0.655  -4.305  -3.094  1.00  0.00    -0.393 OA
HETATM    8  H   LIG     1       0.025  -4.383  -2.358  1.00  0.00     0.210 HD
ENDBRANCH   6   7
BRANCH   6   9
HETATM    9  C   LIG     1       2.933  -3.783  -2.518  1.00  0.00     0.037 C 
BRANCH   9  10
HETATM   10  C   LIG     1       3.022  -4.817  -1.399  1.00  0.00     0.037 C 
BRANCH  10  11
HETATM   11  C   LIG     1       2.597  -4.416   0.022  1.00  0.00     0.147 C 
BRANCH  11  12
HETATM   12  O   LIG     1       2.888  -5.547   0.852  1.00  0.00    -0.393 OA
HETATM   13  H   LIG     1       2.592  -5.367   1.759  1.00  0.00     0.210 HD
ENDBRANCH  11  12
BRANCH  11  14
HETATM   14  C   LIG     1       3.295  -3.152   0.554  1.00  0.00     0.147 C 
BRANCH  14  15
HETATM   15  O   LIG     1       2.998  -2.047  -0.291  1.00  0.00    -0.393 OA
HETATM   16  H   LIG     1       2.085  -1.766  -0.107  1.00  0.00     0.210 HD
ENDBRANCH  14  15
BRANCH  14  17
HETATM   17  C   LIG     1       2.842  -2.806   1.971  1.00  0.00     0.034 C 
BRANCH  17  18
HETATM   18  C   LIG     1       3.540  -1.574   2.510  1.00  0.00     0.002 C 
BRANCH  18  19
HETATM   19  C   LIG     1       3.252  -0.208   1.888  1.00  0.00     0.000 C 
BRANCH  19  20
HETATM   20  C   LIG     1       3.944   1.019   2.497  1.00  0.00     0.000 C 
BRANCH  20  21
HETATM   21  C   LIG     1       3.614   1.326   3.953  1.00  0.00     0.000 C 
BRANCH  21  22
HETATM   22  C   LIG     1       3.951   0.259   5.000  1.00  0.00     0.000 C 
BRANCH  22  23
HETATM   23  C   LIG     1       5.426  -0.150   5.107  1.00  0.00     0.000 C 
BRANCH  23  24
HETATM   24  C   LIG     1       6.207  -0.792   3.953  1.00  0.00     0.000 C 
BRANCH  24  25
HETATM   25  C   LIG     1       7.687  -1.131   4.124  1.00  0.00     0.000 C 
BRANCH  25  26
HETATM   26  C   LIG     1       8.650   0.012   4.442  1.00  0.00    -0.000 C 
BRANCH  26  27
HETATM   27  C   LIG     1       8.348   0.741   5.743  1.00  0.00    -0.005 C 
HETATM   28  C   LIG     1       9.309   1.848   6.099  1.00  0.00     0.005 C 
ENDBRANCH  26  27
ENDBRANCH  25  26
ENDBRANCH  24  25
ENDBRANCH  23  24
ENDBRANCH  22  23
ENDBRANCH  21  22
ENDBRANCH  20  21
ENDBRANCH  19  20
ENDBRANCH  18  19
ENDBRANCH  17  18
ENDBRANCH  14  17
ENDBRANCH  11  14
ENDBRANCH  10  11
ENDBRANCH   9  10
ENDBRANCH   6   9
ENDBRANCH   2   6
BRANCH   3  29
HETATM   29  C   LIG     1      -0.779   0.151  -4.905  1.00  0.00     0.032 C 
BRANCH  29  30
HETATM   30  C   LIG     1      -2.302   0.165  -4.970  1.00  0.00     0.005 C 
BRANCH  30  31
HETATM   31  C   LIG     1      -3.064   0.759  -6.278  1.00  0.00     0.034 C 
BRANCH  31  32
HETATM   32  C   LIG     1      -2.954   0.212  -7.775  1.00  0.00     0.147 C 
BRANCH  32  33
HETATM   33  O   LIG     1      -3.993   0.965  -8.482  1.00  0.00    -0.393 OA
HETATM   34  H   LIG     1      -3.636   1.390  -9.285  1.00  0.00     0.210 HD
ENDBRANCH  32  33
BRANCH  32  35
HETATM   35  C   LIG     1      -1.671   0.241  -8.741  1.00  0.00     0.147 C 
BRANCH  35  36
HETATM   36  O   LIG     1      -1.506   1.525  -9.335  1.00  0.00    -0.393 OA
HETATM   37  H   LIG     1      -2.141   2.110  -8.900  1.00  0.00     0.210 HD
ENDBRANCH  35  36
BRANCH  35  38
HETATM   38  C   LIG     1      -0.324  -0.159  -8.182  1.00  0.00     0.036 C 
BRANCH  38  39
HETATM   39  C   LIG     1       0.084   0.826  -7.138  1.00  0.00     0.034 C 
BRANCH  39  40
HETATM   40  C   LIG     1       0.441   2.244  -6.806  1.00  0.00     0.122 C 
BRANCH  40  41
HETATM   41  O   LIG     1       1.660   2.419  -7.462  1.00  0.00    -0.395 OA
HETATM   42  H   LIG     1       1.763   3.352  -7.676  1.00  0.00     0.210 HD
ENDBRANCH  40  41
BRANCH  40  43
HETATM   43  C   LIG     1      -0.786   3.150  -6.953  1.00  0.00     0.076 C 
BRANCH  43  44
HETATM   44  C   LIG     1      -0.566   4.596  -6.908  1.00  0.00     0.018 C 
HETATM   45  C   LIG     1      -1.237   5.523  -6.287  1.00  0.00     0.018 C 
HETATM   46  C   LIG     1      -0.530   6.779  -6.517  1.00  0.00     0.151 C 
HETATM   47  O   LIG     1       0.436   6.476  -7.548  1.00  0.00    -0.309 OA
HETATM   48  C   LIG     1       0.217   7.160  -5.251  1.00  0.00     0.044 C 
HETATM   49  C   LIG     1       0.408   5.199  -7.777  1.00  0.00     0.289 C 
HETATM   50  O   LIG     1       1.154   4.563  -8.607  1.00  0.00    -0.260 OA
ENDBRANCH  43  44
ENDBRANCH  40  43
ENDBRANCH  39  40
ENDBRANCH  38  39
ENDBRANCH  35  38
ENDBRANCH  32  35
ENDBRANCH  31  32
ENDBRANCH  30  31
ENDBRANCH  29  30
ENDBRANCH   3  29
TORSDOF 32
