REMARK  32 active torsions:
REMARK  status: ('A' for Active; 'I' for Inactive)
REMARK    1  A    between atoms: O_2  and  C_12 
REMARK    2  A    between atoms: O_3  and  C_13 
REMARK    3  A    between atoms: O_4  and  C_25 
REMARK    4  A    between atoms: O_5  and  C_35 
REMARK    5  A    between atoms: C_8  and  C_12 
REMARK    6  A    between atoms: C_9  and  C_13 
REMARK    7  A    between atoms: C_12  and  C_14 
REMARK    8  A    between atoms: C_13  and  C_15 
REMARK    9  A    between atoms: C_14  and  C_16 
REMARK   10  A    between atoms: C_15  and  C_17 
REMARK   11  A    between atoms: C_16  and  C_18 
REMARK   12  A    between atoms: C_17  and  C_19 
REMARK   13  A    between atoms: C_18  and  C_20 
REMARK   14  A    between atoms: C_19  and  C_21 
REMARK   15  A    between atoms: C_20  and  C_22 
REMARK   16  A    between atoms: C_21  and  C_23 
REMARK   17  A    between atoms: C_22  and  C_24 
REMARK   18  A    between atoms: C_23  and  C_26 
REMARK   19  A    between atoms: C_24  and  C_25 
REMARK   20  A    between atoms: C_25  and  C_27 
REMARK   21  A    between atoms: C_26  and  C_29 
REMARK   22  A    between atoms: C_27  and  C_28 
REMARK   23  A    between atoms: C_28  and  C_30 
REMARK   24  A    between atoms: C_29  and  C_31 
REMARK   25  A    between atoms: C_30  and  C_32 
REMARK   26  A    between atoms: C_31  and  C_34 
REMARK   27  A    between atoms: C_32  and  C_33 
REMARK   28  A    between atoms: C_33  and  C_35 
REMARK   29  A    between atoms: C_34  and  C_36 
REMARK   30  A    between atoms: C_35  and  C_37 
REMARK   31  A    between atoms: C_36  and  C_39 
REMARK   32  A    between atoms: C_37  and  C_38 
ROOT
HETATM    1  C   LIG     1       3.061  -2.431   1.936  1.00  0.00     0.034 C 
ENDROOT
BRANCH   1   2
HETATM    2  C   LIG     1       1.758  -3.229   1.729  1.00  0.00     0.147 C 
BRANCH   2   3
HETATM    3  O   LIG     1       2.078  -4.578   1.362  1.00  0.00    -0.393 OA
HETATM    4  H   LIG     1       1.295  -5.000   0.973  1.00  0.00     0.210 HD
ENDBRANCH   2   3
BRANCH   2   5
HETATM    5  C   LIG     1       0.811  -2.537   0.686  1.00  0.00     0.150 C 
HETATM    6  O   LIG     1       1.270  -2.352  -0.694  1.00  0.00    -0.376 OA
HETATM    7  C   LIG     1       0.611  -3.299  -1.585  1.00  0.00     0.150 C 
HETATM    8  C   LIG     1      -0.154  -4.141  -0.635  1.00  0.00     0.037 C 
HETATM    9  C   LIG     1      -0.398  -3.391   0.605  1.00  0.00     0.037 C 
BRANCH   7  10
HETATM   10  C   LIG     1      -0.353  -2.735  -2.708  1.00  0.00     0.147 C 
BRANCH  10  11
HETATM   11  O   LIG     1       0.445  -2.232  -3.795  1.00  0.00    -0.393 OA
HETATM   12  H   LIG     1       0.839  -1.397  -3.487  1.00  0.00     0.210 HD
ENDBRANCH  10  11
BRANCH  10  13
HETATM   13  C   LIG     1      -1.370  -3.757  -3.347  1.00  0.00     0.034 C 
BRANCH  13  14
HETATM   14  C   LIG     1      -2.326  -4.504  -2.379  1.00  0.00     0.002 C 
BRANCH  14  15
HETATM   15  C   LIG     1      -3.256  -5.545  -2.879  1.00  0.00     0.000 C 
BRANCH  15  16
HETATM   16  C   LIG     1      -4.087  -6.318  -1.869  1.00  0.00     0.000 C 
BRANCH  16  17
HETATM   17  C   LIG     1      -4.927  -7.392  -2.575  1.00  0.00     0.000 C 
BRANCH  17  18
HETATM   18  C   LIG     1      -4.257  -8.633  -3.209  1.00  0.00     0.000 C 
BRANCH  18  19
HETATM   19  C   LIG     1      -3.438  -8.566  -4.501  1.00  0.00     0.000 C 
BRANCH  19  20
HETATM   20  C   LIG     1      -2.158  -7.769  -4.614  1.00  0.00     0.000 C 
BRANCH  20  21
HETATM   21  C   LIG     1      -1.062  -8.016  -3.545  1.00  0.00     0.000 C 
BRANCH  21  22
HETATM   22  C   LIG     1       0.114  -7.041  -3.732  1.00  0.00    -0.000 C 
BRANCH  22  23
HETATM   23  C   LIG     1       0.759  -7.230  -5.095  1.00  0.00    -0.005 C 
HETATM   24  C   LIG     1       1.359  -8.614  -5.156  1.00  0.00     0.005 C 
ENDBRANCH  22  23
ENDBRANCH  21  22
ENDBRANCH  20  21
ENDBRANCH  19  20
ENDBRANCH  18  19
ENDBRANCH  17  18
ENDBRANCH  16  17
ENDBRANCH  15  16
ENDBRANCH  14  15
ENDBRANCH  13  14
ENDBRANCH  10  13
ENDBRANCH   7  10
ENDBRANCH   2   5
ENDBRANCH   1   2
BRANCH   1  25
HETATM   25  C   LIG     1       4.125  -3.037   2.911  1.00  0.00     0.002 C 
BRANCH  25  26
HETATM   26  C   LIG     1       5.458  -2.241   3.152  1.00  0.00     0.000 C 
BRANCH  26  27
HETATM   27  C   LIG     1       6.423  -2.895   4.254  1.00  0.00     0.000 C 
BRANCH  27  28
HETATM   28  C   LIG     1       6.796  -4.407   3.981  1.00  0.00     0.002 C 
BRANCH  28  29
HETATM   29  C   LIG     1       7.815  -5.294   4.779  1.00  0.00     0.032 C 
BRANCH  29  30
HETATM   30  C   LIG     1       9.318  -4.948   4.802  1.00  0.00     0.118 C 
BRANCH  30  31
HETATM   31  O   LIG     1       9.960  -5.928   5.643  1.00  0.00    -0.396 OA
HETATM   32  H   LIG     1       9.580  -6.801   5.436  1.00  0.00     0.210 HD
ENDBRANCH  30  31
BRANCH  30  33
HETATM   33  C   LIG     1      10.087  -4.938   3.461  1.00  0.00     0.032 C 
BRANCH  33  34
HETATM   34  C   LIG     1       9.806  -6.127   2.538  1.00  0.00     0.002 C 
BRANCH  34  35
HETATM   35  C   LIG     1      10.615  -6.046   1.235  1.00  0.00     0.000 C 
BRANCH  35  36
HETATM   36  C   LIG     1      10.312  -7.228   0.298  1.00  0.00     0.002 C 
BRANCH  36  37
HETATM   37  C   LIG     1      10.657  -8.560   0.980  1.00  0.00     0.032 C 
BRANCH  37  38
HETATM   38  C   LIG     1      10.406  -9.812   0.141  1.00  0.00     0.122 C 
BRANCH  38  39
HETATM   39  O   LIG     1      11.184  -9.694  -1.047  1.00  0.00    -0.395 OA
HETATM   40  H   LIG     1      11.318 -10.577  -1.423  1.00  0.00     0.210 HD
ENDBRANCH  38  39
BRANCH  38  41
HETATM   41  C   LIG     1      10.793 -11.076   0.949  1.00  0.00     0.076 C 
BRANCH  41  42
HETATM   42  C   LIG     1      10.567 -12.377   0.246  1.00  0.00     0.018 A 
HETATM   43  C   LIG     1      10.069 -12.674  -0.954  1.00  0.00     0.018 A 
HETATM   44  C   LIG     1      10.005 -14.134  -1.177  1.00  0.00     0.151 A 
HETATM   45  O   LIG     1      10.522 -14.682   0.034  1.00  0.00    -0.309 OA
HETATM   46  C   LIG     1      10.828 -14.662  -2.346  1.00  0.00     0.044 C 
HETATM   47  C   LIG     1      10.903 -13.674   0.900  1.00  0.00     0.289 A 
HETATM   48  O   LIG     1      11.387 -13.813   1.954  1.00  0.00    -0.260 OA
ENDBRANCH  41  42
ENDBRANCH  38  41
ENDBRANCH  37  38
ENDBRANCH  36  37
ENDBRANCH  35  36
ENDBRANCH  34  35
ENDBRANCH  33  34
ENDBRANCH  30  33
ENDBRANCH  29  30
ENDBRANCH  28  29
ENDBRANCH  27  28
ENDBRANCH  26  27
ENDBRANCH  25  26
ENDBRANCH   1  25
TORSDOF 32
