REMARK  7 active torsions:
REMARK  status: ('A' for Active; 'I' for Inactive)
REMARK    1  A    between atoms: O_2  and  C_13 
REMARK    2  A    between atoms: O_3  and  C_15 
REMARK    3  A    between atoms: O_5  and  C_19 
REMARK    4  A    between atoms: O_6  and  C_21 
REMARK    5  A    between atoms: O_7  and  C_22 
REMARK    6  A    between atoms: O_8  and  C_23 
REMARK    7  A    between atoms: C_10  and  C_12 
ROOT
HETATM    1  O   LIG     1       1.386  -1.241   0.145  1.00  0.00    -0.306 OA
HETATM    2  O   LIG     1       1.169   2.771  -0.451  1.00  0.00    -0.284 OA
HETATM    3  C   LIG     1       0.014   0.750  -0.083  1.00  0.00     0.084 A 
HETATM    4  C   LIG     1       2.533  -0.473  -0.008  1.00  0.00     0.123 A 
HETATM    5  C   LIG     1       0.163  -0.620   0.113  1.00  0.00     0.096 A 
HETATM    6  C   LIG     1       2.526   0.857  -0.214  1.00  0.00     0.152 A 
HETATM    7  C   LIG     1       1.222   1.558  -0.263  1.00  0.00     0.223 A 
HETATM    8  C   LIG     1      -1.263   1.321  -0.109  1.00  0.00     0.085 A 
HETATM    9  C   LIG     1      -0.963  -1.425   0.285  1.00  0.00     0.075 A 
HETATM   10  C   LIG     1      -2.229  -0.847   0.258  1.00  0.00     0.071 A 
HETATM   11  C   LIG     1      -2.391   0.522   0.062  1.00  0.00     0.074 A 
ENDROOT
BRANCH   4  12
HETATM   12  C   LIG     1       3.774  -1.274   0.053  1.00  0.00     0.006 A 
HETATM   13  C   LIG     1       3.872  -2.461  -0.700  1.00  0.00     0.054 A 
HETATM   14  C   LIG     1       5.026  -3.237  -0.628  1.00  0.00     0.102 A 
HETATM   15  C   LIG     1       6.079  -2.850   0.191  1.00  0.00     0.132 A 
HETATM   16  C   LIG     1       5.987  -1.688   0.943  1.00  0.00     0.102 A 
HETATM   17  C   LIG     1       4.845  -0.899   0.883  1.00  0.00     0.054 A 
BRANCH  14  18
HETATM   18  O   LIG     1       5.169  -4.394  -1.343  1.00  0.00    -0.358 OA
HETATM   19  H   LIG     1       4.359  -4.533  -1.863  1.00  0.00     0.217 HD
ENDBRANCH  14  18
BRANCH  15  20
HETATM   20  O   LIG     1       7.216  -3.608   0.270  1.00  0.00    -0.356 OA
HETATM   21  H   LIG     1       7.046  -4.358  -0.336  1.00  0.00     0.218 HD
ENDBRANCH  15  20
BRANCH  16  22
HETATM   22  O   LIG     1       7.021  -1.315   1.753  1.00  0.00    -0.358 OA
HETATM   23  H   LIG     1       7.698  -2.009   1.622  1.00  0.00     0.217 HD
ENDBRANCH  16  22
ENDBRANCH   4  12
BRANCH   6  24
HETATM   24  O   LIG     1       3.662   1.621  -0.403  1.00  0.00    -0.355 OA
HETATM   25  H   LIG     1       3.343   2.539  -0.530  1.00  0.00     0.218 HD
ENDBRANCH   6  24
BRANCH   8  26
HETATM   26  O   LIG     1      -1.479   2.659  -0.300  1.00  0.00    -0.360 OA
HETATM   27  H   LIG     1      -0.609   3.104  -0.406  1.00  0.00     0.217 HD
ENDBRANCH   8  26
BRANCH  10  28
HETATM   28  O   LIG     1      -3.303  -1.670   0.430  1.00  0.00    -0.361 OA
HETATM   29  H   LIG     1      -4.116  -1.138   0.403  1.00  0.00     0.217 HD
ENDBRANCH  10  28
TORSDOF 7
