REMARK  2 active torsions:
REMARK  status: ('A' for Active; 'I' for Inactive)
REMARK    1  A    between atoms: O_1  and  C_13 
REMARK    2  A    between atoms: O_2  and  C_15 
ROOT
HETATM    1  N   LIG     1      -1.187   3.763   4.587  1.00  0.00     0.093 N 
HETATM    2  C   LIG     1      -0.897   3.503   3.162  1.00  0.00     0.259 C 
HETATM    3  C   LIG     1      -0.798   2.020   2.821  1.00  0.00    -0.005 A 
HETATM    4  C   LIG     1       0.413   4.211   2.774  1.00  0.00     0.080 C 
HETATM    5  C   LIG     1      -1.387   1.066   3.669  1.00  0.00    -0.044 A 
HETATM    6  C   LIG     1      -0.144   1.633   1.617  1.00  0.00     0.020 A 
HETATM    7  C   LIG     1      -2.050   1.487   4.957  1.00  0.00     0.069 C 
HETATM    8  C   LIG     1      -2.354   2.986   5.004  1.00  0.00     0.275 C 
HETATM    9  C   LIG     1       0.686   3.989   1.304  1.00  0.00    -0.045 A 
HETATM   10  C   LIG     1       0.390   2.724   0.738  1.00  0.00    -0.016 A 
HETATM   11  C   LIG     1      -0.022   0.241   1.343  1.00  0.00     0.113 A 
HETATM   12  C   LIG     1      -1.284  -0.290   3.358  1.00  0.00     0.047 A 
HETATM   13  C   LIG     1      -0.582  -0.713   2.224  1.00  0.00     0.102 A 
HETATM   14  C   LIG     1       1.216   5.030   0.526  1.00  0.00     0.008 A 
HETATM   15  C   LIG     1       0.562   2.598  -0.650  1.00  0.00     0.013 A 
HETATM   16  C   LIG     1       1.410   4.855  -0.839  1.00  0.00     0.001 A 
HETATM   17  C   LIG     1       1.071   3.643  -1.430  1.00  0.00     0.001 A 
HETATM   18  H   LIG     1      -1.383   4.757   4.701  1.00  0.00     0.316 HD
ENDROOT
BRANCH  11  19
HETATM   19  O   LIG     1       0.778  -0.102   0.275  1.00  0.00    -0.352 OA
HETATM   20  C   LIG     1       0.416  -1.256  -0.475  1.00  0.00     0.210 C 
ENDBRANCH  11  19
BRANCH  13  21
HETATM   21  O   LIG     1      -0.449  -2.048   1.930  1.00  0.00    -0.353 OA
HETATM   22  C   LIG     1      -0.265  -2.915   3.044  1.00  0.00     0.210 C 
ENDBRANCH  13  21
TORSDOF 2
