REMARK  4 active torsions:
REMARK  status: ('A' for Active; 'I' for Inactive)
REMARK    1  A    between atoms: O_1  and  C_9 
REMARK    2  A    between atoms: O_2  and  C_12 
REMARK    3  A    between atoms: C_4  and  C_10 
REMARK    4  A    between atoms: C_11  and  C_12 
ROOT
HETATM    1  C   LIG     1      -0.979   3.025   1.471  1.00  0.00    -0.036 A 
HETATM    2  C   LIG     1       0.253   3.241   0.835  1.00  0.00     0.014 A 
HETATM    3  C   LIG     1      -1.439   1.708   1.615  1.00  0.00     0.014 A 
HETATM    4  C   LIG     1       1.025   2.165   0.384  1.00  0.00     0.037 A 
HETATM    5  C   LIG     1      -0.668   0.632   1.168  1.00  0.00     0.037 A 
HETATM    6  C   LIG     1       0.557   0.868   0.560  1.00  0.00     0.065 A 
ENDROOT
BRANCH   1   7
HETATM    7  C   LIG     1      -1.762   4.187   1.918  1.00  0.00     0.018 C 
HETATM    8  C   LIG     1      -2.577   4.176   2.984  1.00  0.00     0.082 C 
BRANCH   8   9
HETATM    9  C   LIG     1      -3.310   5.402   3.355  1.00  0.00     0.165 C 
HETATM   10  O   LIG     1      -3.233   6.465   2.763  1.00  0.00    -0.647 OA
BRANCH   9  11
HETATM   11  O   LIG     1      -4.091   5.215   4.438  1.00  0.00    -0.773 OA
HETATM   12  H   LIG     1      -4.067   4.321   4.826  1.00  0.00     0.167 HD
ENDBRANCH   9  11
ENDBRANCH   8   9
ENDBRANCH   1   7
BRANCH   6  13
HETATM   13  O   LIG     1       1.275  -0.212   0.141  1.00  0.00    -0.361 OA
HETATM   14  H   LIG     1       2.097   0.101  -0.271  1.00  0.00     0.217 HD
ENDBRANCH   6  13
TORSDOF 4
