REMARK  7 active torsions:
REMARK  status: ('A' for Active; 'I' for Inactive)
REMARK    1  A    between atoms: O_1  and  C_12 
REMARK    2  A    between atoms: O_3  and  C_21 
REMARK    3  A    between atoms: N_4  and  C_6 
REMARK       I    between atoms: N_4  and  C_13 
REMARK    4  A    between atoms: C_5  and  C_6 
REMARK    5  A    between atoms: C_5  and  C_7 
REMARK    6  A    between atoms: C_13  and  C_15 
REMARK    7  A    between atoms: C_14  and  C_16 
ROOT
HETATM    1  O   LIG     1      -4.479  -3.037   5.617  1.00  0.00    -0.269 OA
HETATM    2  N   LIG     1      -3.589  -2.506   3.561  1.00  0.00    -0.357 N 
HETATM    3  C   LIG     1      -3.921  -3.367   4.577  1.00  0.00     0.241 C 
HETATM    4  H   LIG     1      -3.034  -2.835   2.782  1.00  0.00     0.162 HD
ENDROOT
BRANCH   2   5
HETATM    5  C   LIG     1      -3.834  -1.079   3.638  1.00  0.00     0.127 C 
BRANCH   5   6
HETATM    6  C   LIG     1      -2.684  -0.313   4.300  1.00  0.00     0.058 C 
BRANCH   6   7
HETATM    7  C   LIG     1      -1.371  -0.441   3.557  1.00  0.00    -0.057 A 
HETATM    8  C   LIG     1      -1.249   0.008   2.234  1.00  0.00     0.010 A 
HETATM    9  C   LIG     1      -0.037  -0.116   1.552  1.00  0.00     0.037 A 
HETATM   10  C   LIG     1       1.058  -0.681   2.192  1.00  0.00     0.065 A 
HETATM   11  C   LIG     1       0.964  -1.124   3.507  1.00  0.00     0.037 A 
HETATM   12  C   LIG     1      -0.250  -1.003   4.188  1.00  0.00     0.010 A 
BRANCH  10  13
HETATM   13  O   LIG     1       2.221  -0.782   1.487  1.00  0.00    -0.361 OA
HETATM   14  H   LIG     1       2.892  -1.196   2.055  1.00  0.00     0.217 HD
ENDBRANCH  10  13
ENDBRANCH   6   7
ENDBRANCH   5   6
ENDBRANCH   2   5
BRANCH   3  15
HETATM   15  C   LIG     1      -3.532  -4.765   4.274  1.00  0.00     0.075 C 
HETATM   16  C   LIG     1      -3.782  -5.766   5.132  1.00  0.00     0.017 C 
BRANCH  16  17
HETATM   17  C   LIG     1      -3.434  -7.168   4.850  1.00  0.00    -0.036 A 
HETATM   18  C   LIG     1      -3.449  -7.688   3.546  1.00  0.00     0.014 A 
HETATM   19  C   LIG     1      -3.116  -9.022   3.305  1.00  0.00     0.037 A 
HETATM   20  C   LIG     1      -2.787  -9.851   4.367  1.00  0.00     0.065 A 
HETATM   21  C   LIG     1      -2.790  -9.369   5.671  1.00  0.00     0.037 A 
HETATM   22  C   LIG     1      -3.118  -8.029   5.911  1.00  0.00     0.014 A 
BRANCH  20  23
HETATM   23  O   LIG     1      -2.472 -11.146   4.083  1.00  0.00    -0.361 OA
HETATM   24  H   LIG     1      -2.288 -11.611   4.915  1.00  0.00     0.217 HD
ENDBRANCH  20  23
ENDBRANCH  16  17
ENDBRANCH   3  15
TORSDOF 7
