REMARK  7 active torsions:
REMARK  status: ('A' for Active; 'I' for Inactive)
REMARK    1  A    between atoms: O_1  and  C_12 
REMARK    2  A    between atoms: O_3  and  C_21 
REMARK    3  A    between atoms: N_4  and  C_6 
REMARK       I    between atoms: N_4  and  C_13 
REMARK    4  A    between atoms: C_5  and  C_6 
REMARK    5  A    between atoms: C_5  and  C_7 
REMARK    6  A    between atoms: C_13  and  C_15 
REMARK    7  A    between atoms: C_14  and  C_16 
ROOT
HETATM    1  O   LIG     1      -0.914  -1.288  -8.156  1.00  0.00    -0.269 OA
HETATM    2  N   LIG     1      -0.081  -1.191  -6.006  1.00  0.00    -0.357 N 
HETATM    3  C   LIG     1      -0.657  -1.819  -7.091  1.00  0.00     0.241 C 
HETATM    4  H   LIG     1       0.038  -1.693  -5.137  1.00  0.00     0.162 HD
ENDROOT
BRANCH   2   5
HETATM    5  C   LIG     1       0.247   0.221  -5.997  1.00  0.00     0.127 C 
BRANCH   5   6
HETATM    6  C   LIG     1      -0.909   1.125  -5.550  1.00  0.00     0.058 C 
BRANCH   6   7
HETATM    7  C   LIG     1      -1.399   0.837  -4.147  1.00  0.00    -0.057 A 
HETATM    8  C   LIG     1      -0.838   1.486  -3.037  1.00  0.00     0.010 A 
HETATM    9  C   LIG     1      -1.287   1.198  -1.744  1.00  0.00     0.037 A 
HETATM   10  C   LIG     1      -2.293   0.255  -1.562  1.00  0.00     0.065 A 
HETATM   11  C   LIG     1      -2.864  -0.394  -2.649  1.00  0.00     0.037 A 
HETATM   12  C   LIG     1      -2.421  -0.100  -3.939  1.00  0.00     0.010 A 
BRANCH  10  13
HETATM   13  O   LIG     1      -2.752  -0.067  -0.319  1.00  0.00    -0.361 OA
HETATM   14  H   LIG     1      -2.267   0.459   0.338  1.00  0.00     0.217 HD
ENDBRANCH  10  13
ENDBRANCH   6   7
ENDBRANCH   5   6
ENDBRANCH   2   5
BRANCH   3  15
HETATM   15  C   LIG     1      -0.938  -3.252  -6.799  1.00  0.00     0.075 C 
HETATM   16  C   LIG     1      -1.476  -4.080  -7.707  1.00  0.00     0.017 C 
BRANCH  16  17
HETATM   17  C   LIG     1      -1.726  -5.504  -7.418  1.00  0.00    -0.036 A 
HETATM   18  C   LIG     1      -0.886  -6.237  -6.564  1.00  0.00     0.014 A 
HETATM   19  C   LIG     1      -1.134  -7.583  -6.291  1.00  0.00     0.037 A 
HETATM   20  C   LIG     1      -2.214  -8.215  -6.888  1.00  0.00     0.065 A 
HETATM   21  C   LIG     1      -3.050  -7.521  -7.757  1.00  0.00     0.037 A 
HETATM   22  C   LIG     1      -2.801  -6.168  -8.025  1.00  0.00     0.014 A 
BRANCH  20  23
HETATM   23  O   LIG     1      -2.419  -9.529  -6.593  1.00  0.00    -0.361 OA
HETATM   24  H   LIG     1      -3.197  -9.841  -7.083  1.00  0.00     0.217 HD
ENDBRANCH  20  23
ENDBRANCH  16  17
ENDBRANCH   3  15
TORSDOF 7
