REMARK  2 active torsions:
REMARK  status: ('A' for Active; 'I' for Inactive)
REMARK    1  A    between atoms: N_5  and  C_12 
REMARK    2  A    between atoms: C_24  and  C_27 
ROOT
HETATM    1  F   LIG     1       1.120  -0.793  -4.135  1.00  0.00    -0.204 F 
HETATM    2  O   LIG     1       7.330  -0.400   0.412  1.00  0.00    -0.271 OA
HETATM    3  N   LIG     1       7.176   1.631   0.199  1.00  0.00    -0.323 N 
HETATM    4  N   LIG     1       6.942   5.309   0.354  1.00  0.00    -0.271 NA
HETATM    5  N   LIG     1       3.630   0.604  -2.056  1.00  0.00    -0.269 NA
HETATM    6  C   LIG     1       4.955   1.795  -0.791  1.00  0.00     0.026 C 
HETATM    7  C   LIG     1       4.659   0.277   2.236  1.00  0.00    -0.016 C 
HETATM    8  C   LIG     1       4.440   1.765   1.217  1.00  0.00     0.014 C 
HETATM    9  C   LIG     1       5.440  -1.809  -0.162  1.00  0.00     0.222 C 
HETATM   10  C   LIG     1       5.457  -0.186  -1.619  1.00  0.00     0.163 C 
HETATM   11  C   LIG     1       4.800  -1.394   1.569  1.00  0.00     0.039 C 
HETATM   12  C   LIG     1       5.516   3.080  -0.413  1.00  0.00    -0.024 C 
HETATM   13  C   LIG     1       5.868   0.545   3.158  1.00  0.00     0.010 C 
HETATM   14  C   LIG     1       6.767   2.953  -0.032  1.00  0.00     0.059 C 
HETATM   15  C   LIG     1       4.864   4.255  -0.001  1.00  0.00     0.029 C 
HETATM   16  C   LIG     1       7.550   4.091   0.237  1.00  0.00     0.146 C 
HETATM   17  C   LIG     1       5.586   5.385   0.328  1.00  0.00     0.117 C 
HETATM   18  C   LIG     1       6.468   0.364   0.088  1.00  0.00     0.248 C 
HETATM   19  C   LIG     1       4.262  -0.298  -1.190  1.00  0.00     0.106 C 
HETATM   20  C   LIG     1       3.631  -1.619  -1.593  1.00  0.00     0.010 C 
HETATM   21  C   LIG     1       2.760   0.581  -3.042  1.00  0.00     0.107 C 
HETATM   22  C   LIG     1       2.575  -1.725  -2.510  1.00  0.00     0.043 C 
HETATM   23  C   LIG     1       2.112  -0.627  -3.233  1.00  0.00     0.145 C 
HETATM   24  H   LIG     1       8.199   1.583   0.367  1.00  0.00     0.169 HD
ENDROOT
BRANCH  21  25
HETATM   25  C   LIG     1       2.545   1.920  -3.725  1.00  0.00     0.072 C 
HETATM   26  C   LIG     1       1.296   2.137  -4.265  1.00  0.00     0.132 C 
HETATM   27  F   LIG     1       0.399   1.132  -4.318  1.00  0.00    -0.205 F 
HETATM   28  C   LIG     1       0.919   3.406  -4.689  1.00  0.00     0.043 C 
HETATM   29  C   LIG     1       1.752   4.509  -4.519  1.00  0.00     0.006 C 
HETATM   30  C   LIG     1       3.022   4.333  -4.045  1.00  0.00     0.043 C 
HETATM   31  C   LIG     1       3.468   3.058  -3.725  1.00  0.00     0.132 C 
HETATM   32  F   LIG     1       4.783   3.038  -3.447  1.00  0.00    -0.205 F 
ENDBRANCH  21  25
BRANCH   9  33
HETATM   33  N   LIG     1       6.644  -2.618   0.178  1.00  0.00     0.083 N 
HETATM   34  H   LIG     1       7.320  -2.637  -0.601  1.00  0.00     0.313 HD
HETATM   35  H   LIG     1       7.070  -2.381   1.127  1.00  0.00     0.313 HD
ENDBRANCH   9  33
TORSDOF 2
