REMARK  7 active torsions:
REMARK  status: ('A' for Active; 'I' for Inactive)
REMARK    1  A    between atoms: O_2  and  C_14 
REMARK    2  A    between atoms: O_3  and  C_15 
REMARK    3  A    between atoms: O_5  and  C_17 
REMARK    4  A    between atoms: O_6  and  C_18 
REMARK    5  A    between atoms: O_7  and  C_21 
REMARK    6  A    between atoms: O_8  and  C_23 
REMARK    7  A    between atoms: C_11  and  C_13 
ROOT
HETATM    1  O   LIG     1       1.382  -1.218   0.150  1.00  0.00    -0.306 OA
HETATM    2  O   LIG     1       1.174   2.798  -0.421  1.00  0.00    -0.284 OA
HETATM    3  C   LIG     1       0.017   0.780  -0.070  1.00  0.00     0.087 A 
HETATM    4  C   LIG     1       0.160  -0.595   0.120  1.00  0.00     0.096 A 
HETATM    5  C   LIG     1       2.533  -0.453  -0.002  1.00  0.00     0.123 A 
HETATM    6  C   LIG     1       1.227   1.583  -0.242  1.00  0.00     0.223 A 
HETATM    7  C   LIG     1       2.529   0.879  -0.197  1.00  0.00     0.152 A 
HETATM    8  C   LIG     1      -1.253   1.360  -0.094  1.00  0.00     0.118 A 
HETATM    9  C   LIG     1      -0.967  -1.404   0.288  1.00  0.00     0.077 A 
HETATM   10  C   LIG     1      -2.371   0.550   0.074  1.00  0.00     0.133 A 
HETATM   11  C   LIG     1      -2.227  -0.820   0.263  1.00  0.00     0.104 A 
ENDROOT
BRANCH   5  12
HETATM   12  C   LIG     1       3.771  -1.261   0.047  1.00  0.00     0.004 A 
HETATM   13  C   LIG     1       3.843  -2.469  -0.668  1.00  0.00     0.053 A 
HETATM   14  C   LIG     1       4.995  -3.254  -0.610  1.00  0.00     0.099 A 
HETATM   15  C   LIG     1       6.084  -2.851   0.161  1.00  0.00     0.098 A 
HETATM   16  C   LIG     1       6.026  -1.663   0.884  1.00  0.00     0.040 A 
HETATM   17  C   LIG     1       4.872  -0.875   0.829  1.00  0.00     0.017 A 
BRANCH  14  18
HETATM   18  O   LIG     1       5.067  -4.427  -1.309  1.00  0.00    -0.358 OA
HETATM   19  H   LIG     1       4.234  -4.568  -1.784  1.00  0.00     0.217 HD
ENDBRANCH  14  18
BRANCH  15  20
HETATM   20  O   LIG     1       7.203  -3.633   0.204  1.00  0.00    -0.358 OA
HETATM   21  H   LIG     1       7.866  -3.207   0.768  1.00  0.00     0.217 HD
ENDBRANCH  15  20
ENDBRANCH   5  12
BRANCH   7  22
HETATM   22  O   LIG     1       3.665   1.645  -0.379  1.00  0.00    -0.355 OA
HETATM   23  H   LIG     1       3.345   2.560  -0.526  1.00  0.00     0.218 HD
ENDBRANCH   7  22
BRANCH   8  24
HETATM   24  O   LIG     1      -1.477   2.700  -0.276  1.00  0.00    -0.357 OA
HETATM   25  H   LIG     1      -0.603   3.142  -0.383  1.00  0.00     0.217 HD
ENDBRANCH   8  24
BRANCH  11  26
HETATM   26  O   LIG     1      -3.330  -1.606   0.425  1.00  0.00    -0.358 OA
HETATM   27  H   LIG     1      -4.090  -0.990   0.375  1.00  0.00     0.217 HD
ENDBRANCH  11  26
BRANCH  10  28
HETATM   28  O   LIG     1      -3.629   1.088   0.054  1.00  0.00    -0.356 OA
HETATM   29  H   LIG     1      -3.485   2.047  -0.089  1.00  0.00     0.218 HD
ENDBRANCH  10  28
TORSDOF 7
