REMARK  12 active torsions:
REMARK  status: ('A' for Active; 'I' for Inactive)
REMARK    1  A    between atoms: O_2  and  C_17 
REMARK    2  A    between atoms: O_2  and  C_19 
REMARK    3  A    between atoms: O_3  and  C_13 
REMARK    4  A    between atoms: O_4  and  C_14 
REMARK    5  A    between atoms: O_5  and  C_15 
REMARK    6  A    between atoms: O_6  and  C_18 
REMARK    7  A    between atoms: O_8  and  C_21 
REMARK    8  A    between atoms: O_9  and  C_26 
REMARK    9  A    between atoms: O_11  and  C_30 
REMARK   10  A    between atoms: O_12  and  C_32 
REMARK   11  A    between atoms: C_16  and  C_18 
REMARK   12  A    between atoms: C_22  and  C_24 
ROOT
HETATM    1  C   LIG     1      -0.053  -1.312   3.494  1.00  0.00     0.106 A 
HETATM    2  C   LIG     1       1.317  -1.030   3.424  1.00  0.00     0.054 A 
HETATM    3  C   LIG     1      -0.497  -2.171   4.504  1.00  0.00     0.099 A 
HETATM    4  C   LIG     1       2.229  -1.557   4.365  1.00  0.00     0.004 A 
HETATM    5  C   LIG     1       0.364  -2.635   5.489  1.00  0.00     0.040 A 
HETATM    6  C   LIG     1       1.723  -2.335   5.416  1.00  0.00     0.017 A 
ENDROOT
BRANCH   4   7
HETATM    7  C   LIG     1       3.693  -1.353   4.169  1.00  0.00     0.123 A 
HETATM    8  O   LIG     1       4.026  -1.283   2.814  1.00  0.00    -0.306 OA
HETATM    9  C   LIG     1       5.326  -1.023   2.461  1.00  0.00     0.096 A 
HETATM   10  C   LIG     1       6.354  -0.908   3.385  1.00  0.00     0.084 A 
HETATM   11  C   LIG     1       5.587  -0.857   1.101  1.00  0.00     0.075 A 
HETATM   12  C   LIG     1       6.031  -1.077   4.807  1.00  0.00     0.223 A 
HETATM   13  C   LIG     1       7.652  -0.616   2.965  1.00  0.00     0.085 A 
HETATM   14  O   LIG     1       6.883  -1.041   5.672  1.00  0.00    -0.284 OA
HETATM   15  C   LIG     1       4.596  -1.271   5.155  1.00  0.00     0.152 A 
HETATM   16  C   LIG     1       7.920  -0.427   1.608  1.00  0.00     0.074 A 
HETATM   17  C   LIG     1       6.881  -0.548   0.689  1.00  0.00     0.071 A 
BRANCH  15  18
HETATM   18  O   LIG     1       4.313  -1.350   6.508  1.00  0.00    -0.355 OA
HETATM   19  H   LIG     1       5.171  -1.267   6.964  1.00  0.00     0.218 HD
ENDBRANCH  15  18
BRANCH  13  20
HETATM   20  O   LIG     1       8.708  -0.484   3.824  1.00  0.00    -0.360 OA
HETATM   21  H   LIG     1       8.386  -0.655   4.739  1.00  0.00     0.217 HD
ENDBRANCH  13  20
BRANCH  17  22
HETATM   22  O   LIG     1       7.090  -0.360  -0.645  1.00  0.00    -0.361 OA
HETATM   23  H   LIG     1       8.021  -0.119  -0.788  1.00  0.00     0.217 HD
ENDBRANCH  17  22
ENDBRANCH   4   7
BRANCH   1  24
HETATM   24  O   LIG     1      -0.991  -0.836   2.607  1.00  0.00    -0.315 OA
BRANCH  24  25
HETATM   25  C   LIG     1      -0.700   0.448   2.014  1.00  0.00     0.298 C 
HETATM   26  O   LIG     1       0.070   0.313   0.806  1.00  0.00    -0.348 OA
HETATM   27  C   LIG     1      -0.597  -0.465  -0.208  1.00  0.00     0.179 C 
HETATM   28  C   LIG     1      -1.986   0.090  -0.572  1.00  0.00     0.180 C 
HETATM   29  C   LIG     1      -2.819   0.416   0.672  1.00  0.00     0.183 C 
HETATM   30  C   LIG     1      -1.992   1.219   1.671  1.00  0.00     0.205 C 
BRANCH  27  31
HETATM   31  C   LIG     1       0.317  -0.461  -1.443  1.00  0.00     0.198 C 
BRANCH  31  32
HETATM   32  O   LIG     1       1.592  -1.002  -1.096  1.00  0.00    -0.398 OA
HETATM   33  H   LIG     1       1.878  -0.510  -0.303  1.00  0.00     0.209 HD
ENDBRANCH  31  32
ENDBRANCH  27  31
BRANCH  28  34
HETATM   34  O   LIG     1      -2.726  -0.825  -1.390  1.00  0.00    -0.390 OA
HETATM   35  H   LIG     1      -2.822  -1.666  -0.905  1.00  0.00     0.210 HD
ENDBRANCH  28  34
BRANCH  29  36
HETATM   36  O   LIG     1      -3.976   1.187   0.299  1.00  0.00    -0.390 OA
HETATM   37  H   LIG     1      -4.364   0.743  -0.481  1.00  0.00     0.210 HD
ENDBRANCH  29  36
BRANCH  30  38
HETATM   38  O   LIG     1      -2.786   1.519   2.821  1.00  0.00    -0.388 OA
HETATM   39  H   LIG     1      -3.644   1.828   2.465  1.00  0.00     0.210 HD
ENDBRANCH  30  38
ENDBRANCH  24  25
ENDBRANCH   1  24
BRANCH   3  40
HETATM   40  O   LIG     1      -1.779  -2.642   4.549  1.00  0.00    -0.358 OA
HETATM   41  H   LIG     1      -2.010  -2.855   3.625  1.00  0.00     0.217 HD
ENDBRANCH   3  40
TORSDOF 12
