REMARK  16 active torsions:
REMARK  status: ('A' for Active; 'I' for Inactive)
REMARK    1  A    between atoms: O_1  and  C_20 
REMARK    2  A    between atoms: O_1  and  C_17 
REMARK    3  A    between atoms: O_4  and  C_29 
REMARK    4  A    between atoms: O_4  and  C_21 
REMARK    5  A    between atoms: O_5  and  C_18 
REMARK    6  A    between atoms: O_6  and  C_19 
REMARK    7  A    between atoms: O_7  and  C_23 
REMARK    8  A    between atoms: O_8  and  C_24 
REMARK    9  A    between atoms: O_9  and  C_25 
REMARK   10  A    between atoms: O_10  and  C_27 
REMARK   11  A    between atoms: O_13  and  C_35 
REMARK   12  A    between atoms: O_14  and  C_40 
REMARK   13  A    between atoms: O_15  and  C_41 
REMARK   14  A    between atoms: O_16  and  C_43 
REMARK   15  A    between atoms: C_22  and  C_27 
REMARK   16  A    between atoms: C_30  and  C_33 
ROOT
HETATM    1  O   LIG     1       2.554  -2.409   3.998  1.00  0.00    -0.348 OA
HETATM    2  C   LIG     1       0.933  -0.788   3.045  1.00  0.00     0.211 C 
HETATM    3  C   LIG     1       0.314  -1.043   4.452  1.00  0.00     0.183 C 
HETATM    4  C   LIG     1       1.370  -0.980   5.572  1.00  0.00     0.180 C 
HETATM    5  C   LIG     1       1.978  -1.919   2.759  1.00  0.00     0.298 C 
HETATM    6  C   LIG     1       2.738  -1.381   5.001  1.00  0.00     0.179 C 
ENDROOT
BRANCH   5   7
HETATM    7  O   LIG     1       1.321  -3.050   2.132  1.00  0.00    -0.311 OA
BRANCH   7   8
HETATM    8  C   LIG     1       1.107  -3.070   0.755  1.00  0.00     0.157 C 
HETATM    9  C   LIG     1       0.061  -3.706   0.167  1.00  0.00     0.124 C 
HETATM   10  O   LIG     1      -0.125  -3.756  -1.221  1.00  0.00    -0.306 OA
HETATM   11  C   LIG     1       0.532  -2.837  -1.998  1.00  0.00     0.096 A 
HETATM   12  C   LIG     1       1.641  -2.149  -1.534  1.00  0.00     0.084 A 
HETATM   13  C   LIG     1       0.048  -2.604  -3.291  1.00  0.00     0.075 A 
HETATM   14  C   LIG     1       2.132  -2.504  -0.185  1.00  0.00     0.223 C 
HETATM   15  C   LIG     1       2.213  -1.144  -2.317  1.00  0.00     0.085 A 
HETATM   16  O   LIG     1       3.281  -2.346   0.152  1.00  0.00    -0.284 OA
HETATM   17  C   LIG     1       1.667  -0.821  -3.558  1.00  0.00     0.074 A 
HETATM   18  C   LIG     1       0.626  -1.594  -4.057  1.00  0.00     0.071 A 
BRANCH   9  19
HETATM   19  C   LIG     1      -1.002  -4.469   0.891  1.00  0.00     0.004 A 
HETATM   20  C   LIG     1      -1.436  -4.104   2.169  1.00  0.00     0.053 A 
HETATM   21  C   LIG     1      -2.415  -4.825   2.855  1.00  0.00     0.099 A 
HETATM   22  C   LIG     1      -3.028  -5.913   2.249  1.00  0.00     0.098 A 
HETATM   23  C   LIG     1      -2.653  -6.282   0.961  1.00  0.00     0.040 A 
HETATM   24  C   LIG     1      -1.650  -5.563   0.290  1.00  0.00     0.017 A 
BRANCH  21  25
HETATM   25  O   LIG     1      -2.776  -4.452   4.121  1.00  0.00    -0.358 OA
HETATM   26  H   LIG     1      -2.212  -3.713   4.410  1.00  0.00     0.217 HD
ENDBRANCH  21  25
BRANCH  22  27
HETATM   27  O   LIG     1      -3.997  -6.603   2.917  1.00  0.00    -0.358 OA
HETATM   28  H   LIG     1      -4.327  -7.319   2.353  1.00  0.00     0.217 HD
ENDBRANCH  22  27
ENDBRANCH   9  19
BRANCH  15  29
HETATM   29  O   LIG     1       3.301  -0.439  -1.896  1.00  0.00    -0.360 OA
HETATM   30  H   LIG     1       3.061   0.511  -1.873  1.00  0.00     0.217 HD
ENDBRANCH  15  29
BRANCH  18  31
HETATM   31  O   LIG     1       0.207  -1.334  -5.327  1.00  0.00    -0.361 OA
HETATM   32  H   LIG     1      -0.135  -2.158  -5.715  1.00  0.00     0.217 HD
ENDBRANCH  18  31
ENDBRANCH   7   8
ENDBRANCH   5   7
BRANCH   2  33
HETATM   33  O   LIG     1       1.472   0.559   3.017  1.00  0.00    -0.346 OA
BRANCH  33  34
HETATM   34  C   LIG     1       2.092   0.985   1.784  1.00  0.00     0.292 C 
HETATM   35  O   LIG     1       2.604   2.319   1.918  1.00  0.00    -0.351 OA
HETATM   36  C   LIG     1       1.624   3.355   2.015  1.00  0.00     0.152 C 
HETATM   37  C   LIG     1       0.534   3.291   0.924  1.00  0.00     0.178 C 
HETATM   38  C   LIG     1       2.374   4.685   1.927  1.00  0.00     0.042 C 
HETATM   39  C   LIG     1      -0.006   1.868   0.772  1.00  0.00     0.183 C 
HETATM   40  C   LIG     1       1.154   0.911   0.567  1.00  0.00     0.204 C 
BRANCH  37  41
HETATM   41  O   LIG     1      -0.569   4.162   1.208  1.00  0.00    -0.390 OA
HETATM   42  H   LIG     1      -0.814   4.048   2.144  1.00  0.00     0.210 HD
ENDBRANCH  37  41
BRANCH  39  43
HETATM   43  O   LIG     1      -0.856   1.773  -0.382  1.00  0.00    -0.390 OA
HETATM   44  H   LIG     1      -1.453   2.546  -0.341  1.00  0.00     0.210 HD
ENDBRANCH  39  43
BRANCH  40  45
HETATM   45  O   LIG     1       1.805   1.275  -0.664  1.00  0.00    -0.388 OA
HETATM   46  H   LIG     1       1.067   1.324  -1.310  1.00  0.00     0.210 HD
ENDBRANCH  40  45
ENDBRANCH  33  34
ENDBRANCH   2  33
BRANCH   6  47
HETATM   47  C   LIG     1       3.702  -1.915   6.061  1.00  0.00     0.198 C 
BRANCH  47  48
HETATM   48  O   LIG     1       4.961  -2.183   5.437  1.00  0.00    -0.398 OA
HETATM   49  H   LIG     1       4.752  -2.703   4.636  1.00  0.00     0.209 HD
ENDBRANCH  47  48
ENDBRANCH   6  47
BRANCH   3  50
HETATM   50  O   LIG     1      -0.310  -2.346   4.529  1.00  0.00    -0.390 OA
HETATM   51  H   LIG     1       0.412  -3.004   4.398  1.00  0.00     0.210 HD
ENDBRANCH   3  50
BRANCH   4  52
HETATM   52  O   LIG     1       0.970  -1.843   6.651  1.00  0.00    -0.390 OA
HETATM   53  H   LIG     1       0.197  -2.360   6.345  1.00  0.00     0.210 HD
ENDBRANCH   4  52
TORSDOF 16
