REMARK  6 active torsions:
REMARK  status: ('A' for Active; 'I' for Inactive)
REMARK    1  A    between atoms: O_2  and  C_12 
REMARK    2  A    between atoms: O_3  and  C_14 
REMARK    3  A    between atoms: O_5  and  C_16 
REMARK    4  A    between atoms: O_6  and  C_20 
REMARK    5  A    between atoms: O_7  and  C_22 
REMARK    6  A    between atoms: C_10  and  C_11 
ROOT
HETATM    1  O   LIG     1       1.385  -1.229   0.150  1.00  0.00    -0.306 OA
HETATM    2  O   LIG     1       1.178   2.785  -0.429  1.00  0.00    -0.284 OA
HETATM    3  C   LIG     1       0.017   0.765  -0.076  1.00  0.00     0.084 A 
HETATM    4  C   LIG     1       0.164  -0.606   0.116  1.00  0.00     0.096 A 
HETATM    5  C   LIG     1       2.536  -0.463  -0.000  1.00  0.00     0.123 A 
HETATM    6  C   LIG     1       2.530   0.868  -0.199  1.00  0.00     0.152 A 
HETATM    7  C   LIG     1       1.227   1.570  -0.248  1.00  0.00     0.223 A 
HETATM    8  C   LIG     1      -1.259   1.338  -0.103  1.00  0.00     0.085 A 
HETATM    9  C   LIG     1      -0.964  -1.409   0.282  1.00  0.00     0.075 A 
HETATM   10  C   LIG     1      -2.229  -0.830   0.254  1.00  0.00     0.071 A 
HETATM   11  C   LIG     1      -2.389   0.540   0.062  1.00  0.00     0.074 A 
ENDROOT
BRANCH   5  12
HETATM   12  C   LIG     1       3.774  -1.271   0.053  1.00  0.00     0.004 A 
HETATM   13  C   LIG     1       3.846  -2.483  -0.654  1.00  0.00     0.053 A 
HETATM   14  C   LIG     1       4.999  -3.267  -0.592  1.00  0.00     0.099 A 
HETATM   15  C   LIG     1       6.087  -2.860   0.177  1.00  0.00     0.098 A 
HETATM   16  C   LIG     1       6.030  -1.667   0.892  1.00  0.00     0.040 A 
HETATM   17  C   LIG     1       4.875  -0.880   0.832  1.00  0.00     0.017 A 
BRANCH  14  18
HETATM   18  O   LIG     1       5.071  -4.445  -1.284  1.00  0.00    -0.358 OA
HETATM   19  H   LIG     1       4.240  -4.585  -1.762  1.00  0.00     0.217 HD
ENDBRANCH  14  18
BRANCH  15  20
HETATM   20  O   LIG     1       7.207  -3.641   0.224  1.00  0.00    -0.358 OA
HETATM   21  H   LIG     1       7.871  -3.210   0.782  1.00  0.00     0.217 HD
ENDBRANCH  15  20
ENDBRANCH   5  12
BRANCH   6  22
HETATM   22  O   LIG     1       3.666   1.636  -0.379  1.00  0.00    -0.355 OA
HETATM   23  H   LIG     1       3.342   2.549  -0.529  1.00  0.00     0.218 HD
ENDBRANCH   6  22
BRANCH   8  24
HETATM   24  O   LIG     1      -1.472   2.677  -0.289  1.00  0.00    -0.360 OA
HETATM   25  H   LIG     1      -0.601   3.120  -0.395  1.00  0.00     0.217 HD
ENDBRANCH   8  24
BRANCH  10  26
HETATM   26  O   LIG     1      -3.304  -1.652   0.419  1.00  0.00    -0.361 OA
HETATM   27  H   LIG     1      -4.118  -1.120   0.383  1.00  0.00     0.217 HD
ENDBRANCH  10  26
TORSDOF 6
