REMARK  10 active torsions:
REMARK  status: ('A' for Active; 'I' for Inactive)
REMARK    1  A    between atoms: O_2  and  C_18 
REMARK    2  A    between atoms: O_2  and  C_16 
REMARK    3  A    between atoms: O_3  and  C_12 
REMARK    4  A    between atoms: O_4  and  C_13 
REMARK    5  A    between atoms: O_5  and  C_14 
REMARK    6  A    between atoms: O_8  and  C_24 
REMARK    7  A    between atoms: O_9  and  C_29 
REMARK    8  A    between atoms: O_10  and  C_30 
REMARK    9  A    between atoms: O_11  and  C_32 
REMARK   10  A    between atoms: C_19  and  C_23 
ROOT
HETATM    1  O   LIG     1      -2.807   3.713   4.520  1.00  0.00    -0.306 OA
HETATM    2  O   LIG     1      -4.717   1.247   2.155  1.00  0.00    -0.284 OA
HETATM    3  C   LIG     1      -2.575   2.219   2.623  1.00  0.00     0.157 C 
HETATM    4  C   LIG     1      -2.051   2.983   3.608  1.00  0.00     0.124 C 
HETATM    5  C   LIG     1      -4.071   2.203   2.577  1.00  0.00     0.223 C 
HETATM    6  C   LIG     1      -4.728   3.412   3.098  1.00  0.00     0.084 A 
HETATM    7  C   LIG     1      -4.064   4.086   4.119  1.00  0.00     0.096 A 
HETATM    8  C   LIG     1      -5.937   3.912   2.611  1.00  0.00     0.085 A 
HETATM    9  C   LIG     1      -4.639   5.198   4.734  1.00  0.00     0.075 A 
HETATM   10  C   LIG     1      -6.504   5.046   3.192  1.00  0.00     0.074 A 
HETATM   11  C   LIG     1      -5.861   5.666   4.261  1.00  0.00     0.071 A 
ENDROOT
BRANCH   3  12
HETATM   12  O   LIG     1      -1.788   1.502   1.730  1.00  0.00    -0.311 OA
BRANCH  12  13
HETATM   13  C   LIG     1      -2.392   1.178   0.451  1.00  0.00     0.298 C 
HETATM   14  O   LIG     1      -2.894  -0.162   0.459  1.00  0.00    -0.351 OA
HETATM   15  C   LIG     1      -3.479  -0.595  -0.779  1.00  0.00     0.152 C 
HETATM   16  C   LIG     1      -2.500  -0.450  -1.966  1.00  0.00     0.178 C 
HETATM   17  C   LIG     1      -4.842   0.039  -1.048  1.00  0.00     0.042 C 
HETATM   18  C   LIG     1      -1.834   0.927  -1.998  1.00  0.00     0.183 C 
HETATM   19  C   LIG     1      -1.280   1.298  -0.616  1.00  0.00     0.205 C 
BRANCH  16  20
HETATM   20  O   LIG     1      -1.455  -1.432  -1.857  1.00  0.00    -0.390 OA
HETATM   21  H   LIG     1      -1.872  -2.289  -1.663  1.00  0.00     0.210 HD
ENDBRANCH  16  20
BRANCH  18  22
HETATM   22  O   LIG     1      -2.754   1.934  -2.439  1.00  0.00    -0.390 OA
HETATM   23  H   LIG     1      -2.287   2.782  -2.285  1.00  0.00     0.210 HD
ENDBRANCH  18  22
BRANCH  19  24
HETATM   24  O   LIG     1      -0.758   2.639  -0.690  1.00  0.00    -0.388 OA
HETATM   25  H   LIG     1      -0.214   2.753   0.113  1.00  0.00     0.210 HD
ENDBRANCH  19  24
ENDBRANCH  12  13
ENDBRANCH   3  12
BRANCH   4  26
HETATM   26  C   LIG     1      -0.610   3.184   3.824  1.00  0.00     0.004 A 
HETATM   27  C   LIG     1       0.012   4.324   3.293  1.00  0.00     0.053 A 
HETATM   28  C   LIG     1       1.344   4.578   3.590  1.00  0.00     0.099 A 
HETATM   29  C   LIG     1       2.061   3.733   4.432  1.00  0.00     0.098 A 
HETATM   30  C   LIG     1       1.468   2.587   4.948  1.00  0.00     0.040 A 
HETATM   31  C   LIG     1       0.128   2.313   4.641  1.00  0.00     0.017 A 
BRANCH  28  32
HETATM   32  O   LIG     1       1.947   5.685   3.065  1.00  0.00    -0.358 OA
HETATM   33  H   LIG     1       2.874   5.632   3.375  1.00  0.00     0.217 HD
ENDBRANCH  28  32
BRANCH  29  34
HETATM   34  O   LIG     1       3.344   4.088   4.743  1.00  0.00    -0.358 OA
HETATM   35  H   LIG     1       3.593   3.617   5.558  1.00  0.00     0.217 HD
ENDBRANCH  29  34
ENDBRANCH   4  26
BRANCH   8  36
HETATM   36  O   LIG     1      -6.533   3.341   1.524  1.00  0.00    -0.360 OA
HETATM   37  H   LIG     1      -7.353   3.814   1.309  1.00  0.00     0.217 HD
ENDBRANCH   8  36
BRANCH  11  38
HETATM   38  O   LIG     1      -6.460   6.764   4.805  1.00  0.00    -0.361 OA
HETATM   39  H   LIG     1      -5.938   7.070   5.566  1.00  0.00     0.217 HD
ENDBRANCH  11  38
TORSDOF 10
