REMARK  6 active torsions:
REMARK  status: ('A' for Active; 'I' for Inactive)
REMARK    1  A    between atoms: O_1  and  C_17 
REMARK    2  A    between atoms: O_2  and  C_16 
REMARK    3  A    between atoms: O_3  and  C_20 
REMARK    4  A    between atoms: O_4  and  C_22 
REMARK    5  A    between atoms: C_6  and  C_11 
REMARK    6  A    between atoms: C_11  and  C_14 
ROOT
HETATM    1  N   LIG     1      -0.646  -6.162   1.294  1.00  0.00     0.093 N 
HETATM    2  C   LIG     1      -1.338  -4.904   1.685  1.00  0.00     0.260 C 
HETATM    3  C   LIG     1      -0.610  -3.607   1.323  1.00  0.00    -0.016 A 
HETATM    4  C   LIG     1       0.799  -6.014   1.092  1.00  0.00     0.277 C 
HETATM    5  C   LIG     1       1.114  -4.921   0.068  1.00  0.00     0.069 C 
HETATM    6  C   LIG     1       0.547  -3.610   0.528  1.00  0.00    -0.045 A 
HETATM    7  C   LIG     1      -0.916  -7.253   2.229  1.00  0.00     0.310 C 
HETATM    8  C   LIG     1      -1.086  -2.378   1.799  1.00  0.00     0.049 A 
HETATM    9  C   LIG     1       1.151  -2.397   0.163  1.00  0.00     0.047 A 
HETATM   10  C   LIG     1      -0.478  -1.171   1.436  1.00  0.00     0.099 A 
HETATM   11  C   LIG     1       0.654  -1.168   0.612  1.00  0.00     0.101 A 
ENDROOT
BRANCH   2  12
HETATM   12  C   LIG     1      -2.800  -4.879   1.124  1.00  0.00     0.079 C 
BRANCH  12  13
HETATM   13  C   LIG     1      -2.953  -4.931  -0.386  1.00  0.00    -0.053 A 
HETATM   14  C   LIG     1      -3.450  -3.834  -1.100  1.00  0.00     0.046 A 
HETATM   15  C   LIG     1      -3.571  -3.907  -2.486  1.00  0.00     0.099 A 
HETATM   16  C   LIG     1      -3.198  -5.051  -3.198  1.00  0.00     0.101 A 
HETATM   17  C   LIG     1      -2.731  -6.154  -2.492  1.00  0.00     0.040 A 
HETATM   18  C   LIG     1      -2.620  -6.095  -1.099  1.00  0.00     0.010 A 
BRANCH  15  19
HETATM   19  O   LIG     1      -4.055  -2.813  -3.153  1.00  0.00    -0.358 OA
HETATM   20  H   LIG     1      -4.024  -3.066  -4.097  1.00  0.00     0.217 HD
ENDBRANCH  15  19
BRANCH  16  21
HETATM   21  O   LIG     1      -3.372  -4.989  -4.557  1.00  0.00    -0.353 OA
HETATM   22  C   LIG     1      -2.531  -5.845  -5.324  1.00  0.00     0.210 C 
ENDBRANCH  16  21
ENDBRANCH  12  13
ENDBRANCH   2  12
BRANCH  10  23
HETATM   23  O   LIG     1      -1.018  -0.012   1.912  1.00  0.00    -0.358 OA
HETATM   24  H   LIG     1      -1.882  -0.213   2.311  1.00  0.00     0.217 HD
ENDBRANCH  10  23
BRANCH  11  25
HETATM   25  O   LIG     1       1.371  -0.097   0.169  1.00  0.00    -0.353 OA
HETATM   26  C   LIG     1       0.952   1.200   0.570  1.00  0.00     0.210 C 
ENDBRANCH  11  25
TORSDOF 6
