REMARK  6 active torsions:
REMARK  status: ('A' for Active; 'I' for Inactive)
REMARK    1  A    between atoms: O_2  and  C_12 
REMARK    2  A    between atoms: O_4  and  C_18 
REMARK    3  A    between atoms: O_5  and  C_19 
REMARK    4  A    between atoms: O_6  and  C_20 
REMARK    5  A    between atoms: O_7  and  C_22 
REMARK    6  A    between atoms: C_8  and  C_10 
ROOT
HETATM    1  O   LIG     1       1.366  -1.230  -0.089  1.00  0.00    -0.306 OA
HETATM    2  O   LIG     1       1.090   2.827  -0.174  1.00  0.00    -0.284 OA
HETATM    3  C   LIG     1       2.497  -0.425  -0.162  1.00  0.00     0.123 A 
HETATM    4  C   LIG     1      -0.041   0.748  -0.039  1.00  0.00     0.051 A 
HETATM    5  C   LIG     1       0.134  -0.633  -0.020  1.00  0.00     0.093 A 
HETATM    6  C   LIG     1       2.462   0.920  -0.197  1.00  0.00     0.152 A 
HETATM    7  C   LIG     1       1.147   1.602  -0.137  1.00  0.00     0.220 A 
HETATM    8  C   LIG     1      -1.322   1.306   0.031  1.00  0.00     0.021 A 
HETATM    9  C   LIG     1      -0.977  -1.470   0.068  1.00  0.00     0.074 A 
HETATM   10  C   LIG     1      -2.251  -0.913   0.138  1.00  0.00     0.068 A 
HETATM   11  C   LIG     1      -2.435   0.468   0.120  1.00  0.00     0.037 A 
ENDROOT
BRANCH   3  12
HETATM   12  C   LIG     1       3.753  -1.202  -0.223  1.00  0.00     0.006 A 
HETATM   13  C   LIG     1       3.858  -2.281  -1.124  1.00  0.00     0.054 A 
HETATM   14  C   LIG     1       5.026  -3.037  -1.170  1.00  0.00     0.102 A 
HETATM   15  C   LIG     1       6.087  -2.738  -0.325  1.00  0.00     0.132 A 
HETATM   16  C   LIG     1       5.988  -1.684   0.572  1.00  0.00     0.102 A 
HETATM   17  C   LIG     1       4.832  -0.916   0.632  1.00  0.00     0.054 A 
BRANCH  14  18
HETATM   18  O   LIG     1       5.176  -4.090  -2.030  1.00  0.00    -0.358 OA
HETATM   19  H   LIG     1       4.359  -4.174  -2.553  1.00  0.00     0.217 HD
ENDBRANCH  14  18
BRANCH  15  20
HETATM   20  O   LIG     1       7.237  -3.478  -0.361  1.00  0.00    -0.356 OA
HETATM   21  H   LIG     1       7.069  -4.146  -1.057  1.00  0.00     0.218 HD
ENDBRANCH  15  20
BRANCH  16  22
HETATM   22  O   LIG     1       7.030  -1.398   1.407  1.00  0.00    -0.358 OA
HETATM   23  H   LIG     1       7.716  -2.056   1.177  1.00  0.00     0.217 HD
ENDBRANCH  16  22
ENDBRANCH   3  12
BRANCH   6  24
HETATM   24  O   LIG     1       3.581   1.724  -0.307  1.00  0.00    -0.355 OA
HETATM   25  H   LIG     1       3.237   2.643  -0.312  1.00  0.00     0.218 HD
ENDBRANCH   6  24
BRANCH  10  26
HETATM   26  O   LIG     1      -3.310  -1.767   0.222  1.00  0.00    -0.361 OA
HETATM   27  H   LIG     1      -4.131  -1.251   0.280  1.00  0.00     0.217 HD
ENDBRANCH  10  26
TORSDOF 6
