REMARK  0 active torsions:
REMARK  status: ('A' for Active; 'I' for Inactive)
ROOT
HETATM    1  O   LIG     1      -3.555   2.738  -0.288  1.00  0.00    -0.322 OA
HETATM    2  O   LIG     1      -2.955   0.443  -0.519  1.00  0.00    -0.323 OA
HETATM    3  N   LIG     1      -9.217   0.747  -1.933  1.00  0.00     0.093 N 
HETATM    4  C   LIG     1      -8.343   1.816  -1.381  1.00  0.00     0.261 C 
HETATM    5  C   LIG     1      -6.862   1.431  -1.264  1.00  0.00    -0.004 C 
HETATM    6  C   LIG     1      -8.510   3.165  -2.102  1.00  0.00     0.080 C 
HETATM    7  C   LIG     1      -6.487   0.055  -1.305  1.00  0.00    -0.044 C 
HETATM    8  C   LIG     1      -5.915   2.458  -0.996  1.00  0.00     0.020 C 
HETATM    9  C   LIG     1      -8.939  -0.510  -1.222  1.00  0.00     0.277 C 
HETATM   10  C   LIG     1      -7.520  -1.030  -1.454  1.00  0.00     0.069 C 
HETATM   11  C   LIG     1      -7.626   4.232  -1.502  1.00  0.00    -0.045 A 
HETATM   12  C   LIG     1      -6.352   3.888  -0.983  1.00  0.00    -0.016 A 
HETATM   13  C   LIG     1      -4.623   2.005  -0.725  1.00  0.00     0.116 C 
HETATM   14  C   LIG     1      -5.147  -0.316  -1.178  1.00  0.00     0.047 C 
HETATM   15  C   LIG     1      -4.262   0.670  -0.841  1.00  0.00     0.106 C 
HETATM   16  C   LIG     1      -9.106   0.585  -3.384  1.00  0.00     0.310 C 
HETATM   17  C   LIG     1      -8.062   5.571  -1.545  1.00  0.00     0.008 A 
HETATM   18  C   LIG     1      -5.564   4.947  -0.503  1.00  0.00     0.013 A 
HETATM   19  C   LIG     1      -2.655   1.690   0.123  1.00  0.00     0.352 C 
HETATM   20  C   LIG     1      -7.252   6.590  -1.063  1.00  0.00     0.001 A 
HETATM   21  C   LIG     1      -6.004   6.279  -0.544  1.00  0.00     0.001 A 
ENDROOT
TORSDOF 0
