REMARK  28 active torsions:
REMARK  status: ('A' for Active; 'I' for Inactive)
REMARK    1  A    between atoms: O_3  and  C_16 
REMARK    2  A    between atoms: O_4  and  C_17 
REMARK    3  A    between atoms: O_5  and  C_36 
REMARK    4  A    between atoms: C_8  and  C_9 
REMARK    5  A    between atoms: C_12  and  C_16 
REMARK    6  A    between atoms: C_13  and  C_17 
REMARK    7  A    between atoms: C_16  and  C_18 
REMARK    8  A    between atoms: C_17  and  C_19 
REMARK    9  A    between atoms: C_18  and  C_20 
REMARK   10  A    between atoms: C_19  and  C_21 
REMARK   11  A    between atoms: C_20  and  C_22 
REMARK   12  A    between atoms: C_21  and  C_23 
REMARK   13  A    between atoms: C_22  and  C_24 
REMARK   14  A    between atoms: C_23  and  C_25 
REMARK   15  A    between atoms: C_24  and  C_26 
REMARK   16  A    between atoms: C_25  and  C_27 
REMARK   17  A    between atoms: C_26  and  C_28 
REMARK   18  A    between atoms: C_27  and  C_29 
REMARK   19  A    between atoms: C_28  and  C_30 
REMARK   20  A    between atoms: C_29  and  C_32 
REMARK   21  A    between atoms: C_30  and  C_31 
REMARK   22  A    between atoms: C_31  and  C_33 
REMARK   23  A    between atoms: C_32  and  C_34 
REMARK   24  A    between atoms: C_33  and  C_35 
REMARK   25  A    between atoms: C_34  and  C_37 
REMARK   26  A    between atoms: C_35  and  C_36 
REMARK   27  A    between atoms: C_36  and  C_38 
REMARK   28  A    between atoms: C_38  and  C_39 
ROOT
HETATM    1  C   LIG     1      -1.789   0.712   1.434  1.00  0.00     0.147 C 
ENDROOT
BRANCH   1   2
HETATM    2  O   LIG     1      -2.965   0.022   1.887  1.00  0.00    -0.393 OA
HETATM    3  H   LIG     1      -2.920  -0.871   1.490  1.00  0.00     0.210 HD
ENDBRANCH   1   2
BRANCH   1   4
HETATM    4  C   LIG     1      -1.523   0.298  -0.029  1.00  0.00     0.150 C 
HETATM    5  O   LIG     1      -1.372  -1.142  -0.050  1.00  0.00    -0.375 OA
HETATM    6  C   LIG     1       0.023  -1.459  -0.225  1.00  0.00     0.151 C 
HETATM    7  C   LIG     1       0.796  -0.156  -0.215  1.00  0.00     0.037 C 
HETATM    8  C   LIG     1      -0.241   0.850  -0.630  1.00  0.00     0.037 C 
BRANCH   6   9
HETATM    9  C   LIG     1       0.492  -2.361   0.906  1.00  0.00     0.151 C 
HETATM   10  O   LIG     1       1.894  -2.650   0.825  1.00  0.00    -0.375 OA
HETATM   11  C   LIG     1       2.100  -3.848   1.586  1.00  0.00     0.150 C 
HETATM   12  C   LIG     1       0.747  -4.559   1.691  1.00  0.00     0.037 C 
HETATM   13  C   LIG     1      -0.195  -3.704   0.881  1.00  0.00     0.037 C 
BRANCH  11  14
HETATM   14  C   LIG     1       3.255  -4.704   1.036  1.00  0.00     0.147 C 
BRANCH  14  15
HETATM   15  O   LIG     1       3.451  -5.833   1.902  1.00  0.00    -0.393 OA
HETATM   16  H   LIG     1       3.719  -5.497   2.775  1.00  0.00     0.210 HD
ENDBRANCH  14  15
BRANCH  14  17
HETATM   17  C   LIG     1       3.070  -5.254  -0.389  1.00  0.00     0.034 C 
BRANCH  17  18
HETATM   18  C   LIG     1       2.899  -4.207  -1.498  1.00  0.00     0.002 C 
BRANCH  18  19
HETATM   19  C   LIG     1       2.718  -4.874  -2.867  1.00  0.00     0.000 C 
BRANCH  19  20
HETATM   20  C   LIG     1       2.523  -3.860  -4.006  1.00  0.00     0.000 C 
BRANCH  20  21
HETATM   21  C   LIG     1       2.337  -4.579  -5.355  1.00  0.00     0.000 C 
BRANCH  21  22
HETATM   22  C   LIG     1       2.151  -3.608  -6.530  1.00  0.00     0.000 C 
BRANCH  22  23
HETATM   23  C   LIG     1       1.969  -4.334  -7.880  1.00  0.00     0.000 C 
BRANCH  23  24
HETATM   24  C   LIG     1       1.758  -3.329  -9.023  1.00  0.00    -0.000 C 
BRANCH  24  25
HETATM   25  C   LIG     1       1.554  -3.966 -10.403  1.00  0.00    -0.005 C 
HETATM   26  C   LIG     1       1.351  -2.881 -11.458  1.00  0.00     0.005 C 
ENDBRANCH  24  25
ENDBRANCH  23  24
ENDBRANCH  22  23
ENDBRANCH  21  22
ENDBRANCH  20  21
ENDBRANCH  19  20
ENDBRANCH  18  19
ENDBRANCH  17  18
ENDBRANCH  14  17
ENDBRANCH  11  14
ENDBRANCH   6   9
ENDBRANCH   1   4
BRANCH   1  27
HETATM   27  C   LIG     1      -2.000   2.226   1.623  1.00  0.00     0.034 C 
BRANCH  27  28
HETATM   28  C   LIG     1      -2.184   2.565   3.104  1.00  0.00     0.002 C 
BRANCH  28  29
HETATM   29  C   LIG     1      -2.395   4.053   3.407  1.00  0.00     0.000 C 
BRANCH  29  30
HETATM   30  C   LIG     1      -2.617   4.286   4.912  1.00  0.00     0.000 C 
BRANCH  30  31
HETATM   31  C   LIG     1      -1.443   3.801   5.770  1.00  0.00     0.000 C 
BRANCH  31  32
HETATM   32  C   LIG     1      -1.703   3.996   7.262  1.00  0.00     0.000 C 
BRANCH  32  33
HETATM   33  C   LIG     1      -0.521   3.483   8.085  1.00  0.00     0.000 C 
BRANCH  33  34
HETATM   34  C   LIG     1      -0.750   3.681   9.584  1.00  0.00     0.000 C 
BRANCH  34  35
HETATM   35  C   LIG     1       0.435   3.202  10.429  1.00  0.00     0.002 C 
BRANCH  35  36
HETATM   36  C   LIG     1       1.773   3.919  10.175  1.00  0.00     0.032 C 
BRANCH  36  37
HETATM   37  C   LIG     1       1.763   5.439  10.417  1.00  0.00     0.122 C 
BRANCH  37  38
HETATM   38  O   LIG     1       0.917   6.075   9.460  1.00  0.00    -0.395 OA
HETATM   39  H   LIG     1       1.189   5.785   8.573  1.00  0.00     0.210 HD
ENDBRANCH  37  38
BRANCH  37  40
HETATM   40  C   LIG     1       1.314   5.795  11.850  1.00  0.00     0.076 C 
BRANCH  40  41
HETATM   41  C   LIG     1       1.255   7.251  12.159  1.00  0.00     0.018 C 
HETATM   42  C   LIG     1       1.039   8.312  11.395  1.00  0.00     0.018 C 
HETATM   43  C   LIG     1       1.090   9.568  12.186  1.00  0.00     0.151 C 
HETATM   44  O   LIG     1       1.449   9.131  13.486  1.00  0.00    -0.309 OA
HETATM   45  C   LIG     1      -0.248  10.280  12.264  1.00  0.00     0.044 C 
HETATM   46  C   LIG     1       1.430   7.761  13.532  1.00  0.00     0.289 C 
HETATM   47  O   LIG     1       1.541   7.090  14.516  1.00  0.00    -0.260 OA
ENDBRANCH  40  41
ENDBRANCH  37  40
ENDBRANCH  36  37
ENDBRANCH  35  36
ENDBRANCH  34  35
ENDBRANCH  33  34
ENDBRANCH  32  33
ENDBRANCH  31  32
ENDBRANCH  30  31
ENDBRANCH  29  30
ENDBRANCH  28  29
ENDBRANCH  27  28
ENDBRANCH   1  27
TORSDOF 28
