REMARK  6 active torsions:
REMARK  status: ('A' for Active; 'I' for Inactive)
REMARK    1  A    between atoms: O_4  and  C_26 
REMARK    2  A    between atoms: O_4  and  C_29 
REMARK    3  A    between atoms: N_6  and  C_15 
REMARK    4  A    between atoms: N_6  and  C_17 
REMARK    5  A    between atoms: C_10  and  C_15 
REMARK    6  A    between atoms: C_21  and  C_22 
ROOT
HETATM    1  N   LIG     1       7.688  -2.269   1.375  1.00  0.00    -0.212 N 
HETATM    2  N   LIG     1       8.843  -1.529   1.359  1.00  0.00    -0.148 NA
HETATM    3  N   LIG     1       6.354  -4.070   1.413  1.00  0.00    -0.239 NA
HETATM    4  C   LIG     1       9.950  -2.230   1.332  1.00  0.00     0.144 A 
HETATM    5  C   LIG     1       9.955  -3.726   1.314  1.00  0.00     0.056 A 
HETATM    6  C   LIG     1       7.594  -3.652   1.398  1.00  0.00     0.151 A 
HETATM    7  C   LIG     1       8.801  -4.379   1.372  1.00  0.00     0.056 A 
HETATM    8  C   LIG     1       6.385  -1.781   1.338  1.00  0.00     0.088 A 
HETATM    9  C   LIG     1       5.599  -2.925   1.370  1.00  0.00     0.151 A 
ENDROOT
BRANCH   8  10
HETATM   10  C   LIG     1       5.972  -0.374   1.249  1.00  0.00    -0.003 A 
HETATM   11  C   LIG     1       4.756  -0.034   0.623  1.00  0.00     0.051 A 
HETATM   12  C   LIG     1       4.332   1.300   0.536  1.00  0.00     0.079 A 
HETATM   13  C   LIG     1       5.111   2.301   1.108  1.00  0.00     0.037 A 
HETATM   14  C   LIG     1       6.325   1.987   1.709  1.00  0.00     0.004 A 
HETATM   15  C   LIG     1       6.748   0.661   1.787  1.00  0.00     0.014 A 
BRANCH  12  16
HETATM   16  O   LIG     1       3.153   1.524  -0.121  1.00  0.00    -0.255 OA
BRANCH  16  17
HETATM   17  C   LIG     1       2.990   2.829  -0.671  1.00  0.00     0.530 C 
HETATM   18  F   LIG     1       4.136   3.298  -1.215  1.00  0.00    -0.144 F 
HETATM   19  F   LIG     1       2.561   3.697   0.272  1.00  0.00    -0.144 F 
HETATM   20  F   LIG     1       2.063   2.780  -1.652  1.00  0.00    -0.144 F 
ENDBRANCH  16  17
ENDBRANCH  12  16
ENDBRANCH   8  10
BRANCH   4  21
HETATM   21  N   LIG     1      11.105  -1.494   1.332  1.00  0.00    -0.373 N 
HETATM   22  H   LIG     1      10.962  -0.490   1.390  1.00  0.00     0.161 HD
BRANCH  21  23
HETATM   23  C   LIG     1      12.473  -1.953   1.240  1.00  0.00     0.126 C 
BRANCH  23  24
HETATM   24  C   LIG     1      13.274  -1.538   2.489  1.00  0.00     0.007 C 
HETATM   25  C   LIG     1      12.727  -2.160   3.780  1.00  0.00     0.036 C 
HETATM   26  C   LIG     1      12.918  -3.677   3.804  1.00  0.00     0.272 C 
HETATM   27  N   LIG     1      14.292  -4.126   3.558  1.00  0.00     0.084 N 
HETATM   28  C   LIG     1      14.945  -3.462   2.424  1.00  0.00     0.272 C 
HETATM   29  C   LIG     1      15.106  -4.084   4.768  1.00  0.00     0.309 C 
HETATM   30  C   LIG     1      14.750  -1.942   2.363  1.00  0.00     0.036 C 
ENDBRANCH  23  24
ENDBRANCH  21  23
ENDBRANCH   4  21
TORSDOF 6
