REMARK  5 active torsions:
REMARK  status: ('A' for Active; 'I' for Inactive)
REMARK    1  A    between atoms: O_1  and  C_16 
REMARK    2  A    between atoms: O_2  and  C_15 
REMARK    3  A    between atoms: O_3  and  C_21 
REMARK    4  A    between atoms: C_5  and  C_10 
REMARK    5  A    between atoms: C_10  and  C_14 
ROOT
HETATM    1  N   LIG     1      -1.967   4.328  -3.648  1.00  0.00     0.093 N 
HETATM    2  C   LIG     1      -1.627   4.504  -2.212  1.00  0.00     0.260 C 
HETATM    3  C   LIG     1      -0.785   3.308  -1.787  1.00  0.00    -0.016 A 
HETATM    4  C   LIG     1      -2.788   3.132  -3.870  1.00  0.00     0.277 C 
HETATM    5  C   LIG     1      -2.146   1.837  -3.338  1.00  0.00     0.069 C 
HETATM    6  C   LIG     1      -1.111   2.022  -2.254  1.00  0.00    -0.045 A 
HETATM    7  C   LIG     1      -2.555   5.506  -4.269  1.00  0.00     0.310 C 
HETATM    8  C   LIG     1       0.296   3.467  -0.909  1.00  0.00     0.049 A 
HETATM    9  C   LIG     1      -0.418   0.901  -1.766  1.00  0.00     0.047 A 
HETATM   10  C   LIG     1       0.982   2.348  -0.455  1.00  0.00     0.099 A 
HETATM   11  C   LIG     1       0.618   1.056  -0.847  1.00  0.00     0.101 A 
ENDROOT
BRANCH   2  12
HETATM   12  C   LIG     1      -2.858   4.697  -1.265  1.00  0.00     0.079 C 
BRANCH  12  13
HETATM   13  C   LIG     1      -2.561   4.896   0.210  1.00  0.00    -0.056 A 
HETATM   14  C   LIG     1      -2.405   6.176   0.754  1.00  0.00     0.010 A 
HETATM   15  C   LIG     1      -2.161   6.341   2.121  1.00  0.00     0.037 A 
HETATM   16  C   LIG     1      -2.060   5.223   2.947  1.00  0.00     0.065 A 
HETATM   17  C   LIG     1      -2.206   3.946   2.428  1.00  0.00     0.037 A 
HETATM   18  C   LIG     1      -2.464   3.782   1.066  1.00  0.00     0.010 A 
BRANCH  16  19
HETATM   19  O   LIG     1      -1.815   5.430   4.272  1.00  0.00    -0.361 OA
HETATM   20  H   LIG     1      -1.718   4.565   4.703  1.00  0.00     0.217 HD
ENDBRANCH  16  19
ENDBRANCH  12  13
ENDBRANCH   2  12
BRANCH  10  21
HETATM   21  O   LIG     1       2.030   2.537   0.405  1.00  0.00    -0.358 OA
HETATM   22  H   LIG     1       2.378   1.641   0.576  1.00  0.00     0.217 HD
ENDBRANCH  10  21
BRANCH  11  23
HETATM   23  O   LIG     1       1.344   0.044  -0.274  1.00  0.00    -0.353 OA
HETATM   24  C   LIG     1       0.939  -1.282  -0.597  1.00  0.00     0.210 C 
ENDBRANCH  11  23
TORSDOF 5
