REMARK  2 active torsions:
REMARK  status: ('A' for Active; 'I' for Inactive)
REMARK    1  A    between atoms: O_1  and  C_15 
REMARK    2  A    between atoms: O_2  and  C_17 
ROOT
HETATM    1  O   LIG     1       5.434  -1.906  -2.618  1.00  0.00    -0.289 OA
HETATM    2  N   LIG     1       0.378  -6.460   0.722  1.00  0.00     0.092 N 
HETATM    3  C   LIG     1       2.174  -3.332  -0.443  1.00  0.00     0.028 C 
HETATM    4  C   LIG     1       0.725  -5.301  -0.096  1.00  0.00     0.256 C 
HETATM    5  C   LIG     1       2.189  -4.857  -0.057  1.00  0.00     0.063 C 
HETATM    6  C   LIG     1       0.077  -4.056   0.417  1.00  0.00    -0.008 A 
HETATM    7  C   LIG     1       0.843  -2.914   0.166  1.00  0.00     0.003 A 
HETATM    8  C   LIG     1      -1.146  -4.028   1.058  1.00  0.00    -0.045 A 
HETATM    9  C   LIG     1      -1.781  -5.338   1.440  1.00  0.00     0.069 C 
HETATM   10  C   LIG     1      -1.095  -6.565   0.785  1.00  0.00     0.275 C 
HETATM   11  C   LIG     1       2.174  -3.179  -1.954  1.00  0.00    -0.004 C 
HETATM   12  C   LIG     1       3.388  -2.688   0.192  1.00  0.00    -0.004 C 
HETATM   13  C   LIG     1       0.332  -1.656   0.488  1.00  0.00     0.109 A 
HETATM   14  C   LIG     1      -1.661  -2.778   1.397  1.00  0.00     0.047 A 
HETATM   15  C   LIG     1      -0.944  -1.592   1.104  1.00  0.00     0.102 A 
HETATM   16  C   LIG     1       3.208  -2.692  -2.657  1.00  0.00     0.052 C 
HETATM   17  C   LIG     1       4.431  -2.204  -0.500  1.00  0.00     0.052 C 
HETATM   18  C   LIG     1       4.444  -2.242  -1.981  1.00  0.00     0.171 C 
HETATM   19  H   LIG     1       0.762  -7.300   0.294  1.00  0.00     0.316 HD
ENDROOT
BRANCH  13  20
HETATM   20  O   LIG     1       1.138  -0.607   0.137  1.00  0.00    -0.352 OA
HETATM   21  C   LIG     1       0.941   0.636   0.795  1.00  0.00     0.210 C 
ENDBRANCH  13  20
BRANCH  15  22
HETATM   22  O   LIG     1      -1.495  -0.355   1.339  1.00  0.00    -0.353 OA
HETATM   23  C   LIG     1      -2.380  -0.252   2.449  1.00  0.00     0.210 C 
ENDBRANCH  15  22
TORSDOF 2
