REMARK  29 active torsions:
REMARK  status: ('A' for Active; 'I' for Inactive)
REMARK    1  A    between atoms: O_2  and  C_11 
REMARK    2  A    between atoms: O_3  and  C_12 
REMARK    3  A    between atoms: O_4  and  C_31 
REMARK    4  A    between atoms: C_7  and  C_11 
REMARK    5  A    between atoms: C_8  and  C_12 
REMARK    6  A    between atoms: C_11  and  C_13 
REMARK    7  A    between atoms: C_12  and  C_14 
REMARK    8  A    between atoms: C_13  and  C_15 
REMARK    9  A    between atoms: C_14  and  C_16 
REMARK   10  A    between atoms: C_15  and  C_17 
REMARK   11  A    between atoms: C_16  and  C_18 
REMARK   12  A    between atoms: C_17  and  C_19 
REMARK   13  A    between atoms: C_18  and  C_20 
REMARK   14  A    between atoms: C_19  and  C_21 
REMARK   15  A    between atoms: C_20  and  C_22 
REMARK   16  A    between atoms: C_21  and  C_23 
REMARK   17  A    between atoms: C_22  and  C_24 
REMARK   18  A    between atoms: C_23  and  C_25 
REMARK   19  A    between atoms: C_24  and  C_26 
REMARK   20  A    between atoms: C_25  and  C_27 
REMARK   21  A    between atoms: C_26  and  C_29 
REMARK   22  A    between atoms: C_27  and  C_28 
REMARK   23  A    between atoms: C_28  and  C_30 
REMARK   24  A    between atoms: C_29  and  C_32 
REMARK   25  A    between atoms: C_30  and  C_31 
REMARK   26  A    between atoms: C_31  and  C_33 
REMARK   27  A    between atoms: C_32  and  C_34 
REMARK   28  A    between atoms: C_33  and  C_35 
REMARK   29  A    between atoms: C_34  and  C_36 
ROOT
HETATM    1  C   LIG     1      -0.342  -3.361   0.209  1.00  0.00     0.147 C 
ENDROOT
BRANCH   1   2
HETATM    2  O   LIG     1      -1.421  -3.532  -0.708  1.00  0.00    -0.393 OA
HETATM    3  H   LIG     1      -1.199  -3.051  -1.521  1.00  0.00     0.210 HD
ENDBRANCH   1   2
BRANCH   1   4
HETATM    4  C   LIG     1      -0.868  -2.802   1.541  1.00  0.00     0.150 C 
HETATM    5  O   LIG     1      -1.717  -3.697   2.257  1.00  0.00    -0.376 OA
HETATM    6  C   LIG     1      -2.665  -2.922   3.014  1.00  0.00     0.150 C 
HETATM    7  C   LIG     1      -2.756  -1.534   2.388  1.00  0.00     0.037 C 
HETATM    8  C   LIG     1      -1.667  -1.507   1.346  1.00  0.00     0.037 C 
BRANCH   6   9
HETATM    9  C   LIG     1      -2.259  -2.833   4.510  1.00  0.00     0.147 C 
BRANCH   9  10
HETATM   10  O   LIG     1      -3.239  -2.121   5.261  1.00  0.00    -0.393 OA
HETATM   11  H   LIG     1      -4.117  -2.315   4.889  1.00  0.00     0.210 HD
ENDBRANCH   9  10
BRANCH   9  12
HETATM   12  C   LIG     1      -0.904  -2.135   4.641  1.00  0.00     0.034 C 
BRANCH  12  13
HETATM   13  C   LIG     1      -0.312  -1.930   6.004  1.00  0.00     0.002 C 
BRANCH  13  14
HETATM   14  C   LIG     1      -0.918  -0.886   6.924  1.00  0.00     0.000 C 
BRANCH  14  15
HETATM   15  C   LIG     1      -0.084  -0.878   8.204  1.00  0.00     0.000 C 
BRANCH  15  16
HETATM   16  C   LIG     1       1.410  -0.618   7.933  1.00  0.00     0.000 C 
BRANCH  16  17
HETATM   17  C   LIG     1       1.698   0.836   7.569  1.00  0.00     0.000 C 
BRANCH  17  18
HETATM   18  C   LIG     1       1.108   1.882   8.529  1.00  0.00     0.000 C 
BRANCH  18  19
HETATM   19  C   LIG     1       1.693   1.822   9.953  1.00  0.00     0.000 C 
BRANCH  19  20
HETATM   20  C   LIG     1       1.389   0.543  10.743  1.00  0.00     0.000 C 
BRANCH  20  21
HETATM   21  C   LIG     1       2.005   0.393  12.117  1.00  0.00    -0.000 C 
BRANCH  21  22
HETATM   22  C   LIG     1       3.528   0.567  12.131  1.00  0.00    -0.005 C 
HETATM   23  C   LIG     1       4.335  -0.453  11.323  1.00  0.00     0.005 C 
ENDBRANCH  21  22
ENDBRANCH  20  21
ENDBRANCH  19  20
ENDBRANCH  18  19
ENDBRANCH  17  18
ENDBRANCH  16  17
ENDBRANCH  15  16
ENDBRANCH  14  15
ENDBRANCH  13  14
ENDBRANCH  12  13
ENDBRANCH   9  12
ENDBRANCH   6   9
ENDBRANCH   1   4
BRANCH   1  24
HETATM   24  C   LIG     1       0.498  -4.654   0.227  1.00  0.00     0.034 C 
BRANCH  24  25
HETATM   25  C   LIG     1       0.978  -5.208  -1.152  1.00  0.00     0.002 C 
BRANCH  25  26
HETATM   26  C   LIG     1       2.000  -4.377  -1.934  1.00  0.00     0.000 C 
BRANCH  26  27
HETATM   27  C   LIG     1       1.453  -3.051  -2.437  1.00  0.00     0.000 C 
BRANCH  27  28
HETATM   28  C   LIG     1       2.402  -2.068  -3.102  1.00  0.00     0.000 C 
BRANCH  28  29
HETATM   29  C   LIG     1       3.563  -1.537  -2.245  1.00  0.00     0.000 C 
BRANCH  29  30
HETATM   30  C   LIG     1       4.587  -2.519  -1.642  1.00  0.00     0.000 C 
BRANCH  30  31
HETATM   31  C   LIG     1       5.344  -3.420  -2.637  1.00  0.00     0.000 C 
BRANCH  31  32
HETATM   32  C   LIG     1       6.218  -4.486  -1.930  1.00  0.00     0.002 C 
BRANCH  32  33
HETATM   33  C   LIG     1       7.084  -5.396  -2.851  1.00  0.00     0.032 C 
BRANCH  33  34
HETATM   34  C   LIG     1       6.263  -6.324  -3.770  1.00  0.00     0.122 C 
BRANCH  34  35
HETATM   35  O   LIG     1       5.582  -5.461  -4.679  1.00  0.00    -0.395 OA
HETATM   36  H   LIG     1       4.933  -5.994  -5.161  1.00  0.00     0.210 HD
ENDBRANCH  34  35
BRANCH  34  37
HETATM   37  C   LIG     1       7.099  -7.328  -4.599  1.00  0.00     0.076 C 
BRANCH  37  38
HETATM   38  C   LIG     1       6.286  -8.245  -5.485  1.00  0.00     0.018 C 
HETATM   39  C   LIG     1       5.477  -7.961  -6.518  1.00  0.00     0.018 C 
HETATM   40  C   LIG     1       4.949  -9.183  -7.153  1.00  0.00     0.151 C 
HETATM   41  O   LIG     1       5.603 -10.231  -6.447  1.00  0.00    -0.309 OA
HETATM   42  C   LIG     1       3.451  -9.374  -6.970  1.00  0.00     0.044 C 
HETATM   43  C   LIG     1       6.271  -9.690  -5.403  1.00  0.00     0.289 C 
HETATM   44  O   LIG     1       6.792 -10.362  -4.472  1.00  0.00    -0.260 OA
ENDBRANCH  37  38
ENDBRANCH  34  37
ENDBRANCH  33  34
ENDBRANCH  32  33
ENDBRANCH  31  32
ENDBRANCH  30  31
ENDBRANCH  29  30
ENDBRANCH  28  29
ENDBRANCH  27  28
ENDBRANCH  26  27
ENDBRANCH  25  26
ENDBRANCH  24  25
ENDBRANCH   1  24
TORSDOF 29
