REMARK  4 active torsions:
REMARK  status: ('A' for Active; 'I' for Inactive)
REMARK    1  A    between atoms: O_1  and  C_9 
REMARK    2  A    between atoms: O_2  and  C_12 
REMARK    3  A    between atoms: C_4  and  C_10 
REMARK    4  A    between atoms: C_11  and  C_12 
ROOT
HETATM    1  C   LIG     1      -0.724  -3.212  -0.620  1.00  0.00    -0.036 A 
HETATM    2  C   LIG     1      -1.365  -1.985  -0.843  1.00  0.00     0.014 A 
HETATM    3  C   LIG     1       0.568  -3.206  -0.074  1.00  0.00     0.014 A 
HETATM    4  C   LIG     1      -0.715  -0.781  -0.560  1.00  0.00     0.037 A 
HETATM    5  C   LIG     1       1.219  -2.002   0.214  1.00  0.00     0.037 A 
HETATM    6  C   LIG     1       0.571  -0.798  -0.037  1.00  0.00     0.065 A 
ENDROOT
BRANCH   1   7
HETATM    7  C   LIG     1      -1.375  -4.503  -0.885  1.00  0.00     0.018 C 
HETATM    8  C   LIG     1      -2.262  -4.713  -1.870  1.00  0.00     0.082 C 
BRANCH   8   9
HETATM    9  C   LIG     1      -2.841  -6.059  -2.051  1.00  0.00     0.165 C 
HETATM   10  O   LIG     1      -2.541  -7.039  -1.391  1.00  0.00    -0.647 OA
BRANCH   9  11
HETATM   11  O   LIG     1      -3.757  -6.087  -3.040  1.00  0.00    -0.773 OA
HETATM   12  H   LIG     1      -3.919  -5.238  -3.488  1.00  0.00     0.167 HD
ENDBRANCH   9  11
ENDBRANCH   8   9
ENDBRANCH   1   7
BRANCH   6  13
HETATM   13  O   LIG     1       1.165   0.400   0.224  1.00  0.00    -0.361 OA
HETATM   14  H   LIG     1       2.049   0.235   0.592  1.00  0.00     0.217 HD
ENDBRANCH   6  13
TORSDOF 4
