REMARK  3 active torsions:
REMARK  status: ('A' for Active; 'I' for Inactive)
REMARK    1  A    between atoms: O_1  and  C_6 
REMARK    2  A    between atoms: O_2  and  C_7 
REMARK    3  A    between atoms: O_3  and  C_8 
ROOT
HETATM    1  N   LIG     1       0.924   1.024  -2.817  1.00  0.00     0.100 N 
HETATM    2  C   LIG     1       0.738   0.219  -1.598  1.00  0.00     0.282 C 
HETATM    3  C   LIG     1      -0.674   0.602  -1.146  1.00  0.00     0.184 C 
HETATM    4  C   LIG     1       1.004  -1.253  -1.908  1.00  0.00     0.154 C 
HETATM    5  C   LIG     1      -0.593   2.130  -1.319  1.00  0.00     0.177 C 
HETATM    6  C   LIG     1       0.314   2.330  -2.555  1.00  0.00     0.307 C 
HETATM    7  C   LIG     1       2.302   1.017  -3.279  1.00  0.00     0.273 C 
HETATM    8  C   LIG     1       2.455  -1.383  -2.392  1.00  0.00     0.036 C 
HETATM    9  C   LIG     1       2.742  -0.432  -3.560  1.00  0.00     0.033 C 
ENDROOT
BRANCH   3  10
HETATM   10  O   LIG     1      -1.689   0.019  -1.964  1.00  0.00    -0.391 OA
HETATM   11  H   LIG     1      -1.737  -0.921  -1.720  1.00  0.00     0.210 HD
ENDBRANCH   3  10
BRANCH   5  12
HETATM   12  O   LIG     1      -1.860   2.758  -1.406  1.00  0.00    -0.391 OA
HETATM   13  H   LIG     1      -1.713   3.717  -1.481  1.00  0.00     0.210 HD
ENDBRANCH   5  12
BRANCH   4  14
HETATM   14  O   LIG     1       0.806  -2.045  -0.740  1.00  0.00    -0.393 OA
HETATM   15  H   LIG     1       0.937  -2.973  -1.001  1.00  0.00     0.210 HD
ENDBRANCH   4  14
TORSDOF 3
