REMARK  6 active torsions:
REMARK  status: ('A' for Active; 'I' for Inactive)
REMARK    1  A    between atoms: O_2  and  C_10 
REMARK    2  A    between atoms: O_3  and  C_11 
REMARK    3  A    between atoms: O_4  and  C_12 
REMARK    4  A    between atoms: O_5  and  C_13 
REMARK    5  A    between atoms: O_7  and  C_22 
REMARK    6  A    between atoms: C_14  and  C_17 
ROOT
HETATM    1  O   LIG     1      -2.178   0.816   0.777  1.00  0.00    -0.306 OA
HETATM    2  O   LIG     1      -1.079  -1.237   3.771  1.00  0.00    -0.287 OA
HETATM    3  C   LIG     1      -0.507  -0.713   1.504  1.00  0.00     0.087 C 
HETATM    4  C   LIG     1      -0.861   0.378   0.728  1.00  0.00     0.129 C 
HETATM    5  C   LIG     1       0.614  -1.472   1.184  1.00  0.00     0.121 C 
HETATM    6  C   LIG     1       0.074   0.943  -0.161  1.00  0.00     0.139 C 
HETATM    7  C   LIG     1       1.583  -0.961   0.273  1.00  0.00     0.139 C 
HETATM    8  C   LIG     1       1.336   0.292  -0.383  1.00  0.00     0.141 C 
HETATM    9  C   LIG     1      -3.127  -0.100   1.275  1.00  0.00     0.090 C 
HETATM   10  C   LIG     1      -1.436  -1.001   2.578  1.00  0.00     0.190 C 
HETATM   11  C   LIG     1      -2.822  -1.037   2.187  1.00  0.00     0.094 C 
ENDROOT
BRANCH   9  12
HETATM   12  C   LIG     1      -4.488   0.026   0.731  1.00  0.00    -0.002 A 
HETATM   13  C   LIG     1      -5.642  -0.292   1.468  1.00  0.00     0.017 A 
HETATM   14  C   LIG     1      -6.918  -0.084   0.929  1.00  0.00     0.037 A 
HETATM   15  C   LIG     1      -7.050   0.434  -0.360  1.00  0.00     0.068 A 
HETATM   16  C   LIG     1      -5.905   0.737  -1.094  1.00  0.00     0.037 A 
HETATM   17  C   LIG     1      -4.641   0.520  -0.565  1.00  0.00     0.017 A 
BRANCH  15  18
HETATM   18  O   LIG     1      -8.319   0.644  -0.832  1.00  0.00    -0.356 OA
HETATM   19  C   LIG     1      -8.412   0.586  -2.257  1.00  0.00     0.210 C 
ENDBRANCH  15  18
ENDBRANCH   9  12
BRANCH   6  20
HETATM   20  O   LIG     1      -0.335   2.157  -0.673  1.00  0.00    -0.351 OA
HETATM   21  C   LIG     1       0.176   2.568  -1.932  1.00  0.00     0.210 C 
ENDBRANCH   6  20
BRANCH   5  22
HETATM   22  O   LIG     1       0.808  -2.745   1.691  1.00  0.00    -0.352 OA
HETATM   23  C   LIG     1      -0.379  -3.545   1.773  1.00  0.00     0.210 C 
ENDBRANCH   5  22
BRANCH   8  24
HETATM   24  O   LIG     1       2.266   1.033  -1.085  1.00  0.00    -0.350 OA
HETATM   25  C   LIG     1       2.941   0.487  -2.214  1.00  0.00     0.210 C 
ENDBRANCH   8  24
BRANCH   7  26
HETATM   26  O   LIG     1       2.673  -1.810   0.213  1.00  0.00    -0.351 OA
HETATM   27  C   LIG     1       3.812  -1.421  -0.500  1.00  0.00     0.210 C 
ENDBRANCH   7  26
TORSDOF 6
