REMARK  3 active torsions:
REMARK  status: ('A' for Active; 'I' for Inactive)
REMARK    1  A    between atoms: O_2  and  C_13 
REMARK    2  A    between atoms: C_6  and  C_9 
REMARK    3  A    between atoms: C_7  and  C_10 
ROOT
HETATM    1  O   LIG     1       8.594  -3.566  -1.965  1.00  0.00    -0.266 OA
HETATM    2  N   LIG     1       6.816  -2.420  -1.146  1.00  0.00    -0.321 N 
HETATM    3  N   LIG     1       8.012  -7.088  -1.382  1.00  0.00    -0.191 NA
HETATM    4  C   LIG     1       5.614  -2.337  -0.486  1.00  0.00     0.049 A 
HETATM    5  C   LIG     1       5.670  -4.771  -0.305  1.00  0.00     0.003 A 
HETATM    6  C   LIG     1       5.050  -3.477  -0.056  1.00  0.00     0.044 A 
HETATM    7  C   LIG     1       6.858  -4.847  -0.951  1.00  0.00     0.123 A 
HETATM    8  C   LIG     1       7.505  -3.582  -1.400  1.00  0.00     0.267 A 
HETATM    9  C   LIG     1       7.493  -6.080  -1.188  1.00  0.00     0.106 C 
HETATM   10  H   LIG     1       7.283  -1.554  -1.402  1.00  0.00     0.169 HD
ENDROOT
BRANCH   5  11
HETATM   11  C   LIG     1       4.992  -6.003   0.160  1.00  0.00    -0.024 A 
HETATM   12  C   LIG     1       5.249  -6.511   1.440  1.00  0.00     0.012 A 
HETATM   13  C   LIG     1       4.607  -7.672   1.875  1.00  0.00     0.001 A 
HETATM   14  C   LIG     1       3.704  -8.326   1.039  1.00  0.00     0.000 A 
HETATM   15  C   LIG     1       3.439  -7.822  -0.234  1.00  0.00     0.001 A 
HETATM   16  C   LIG     1       4.078  -6.662  -0.673  1.00  0.00     0.012 A 
ENDBRANCH   5  11
BRANCH   4  17
HETATM   17  C   LIG     1       5.005  -0.998  -0.251  1.00  0.00     0.025 A 
HETATM   18  C   LIG     1       5.774   0.176  -0.115  1.00  0.00     0.078 A 
HETATM   19  C   LIG     1       5.178   1.420   0.123  1.00  0.00     0.039 A 
HETATM   20  C   LIG     1       3.791   1.519   0.220  1.00  0.00     0.022 A 
HETATM   21  C   LIG     1       3.012   0.379   0.064  1.00  0.00     0.012 A 
HETATM   22 BR   LIG     1       1.128   0.509   0.178  1.00  0.00    -0.051 Br
HETATM   23  C   LIG     1       3.605  -0.863  -0.177  1.00  0.00     0.035 A 
BRANCH  18  24
HETATM   24  O   LIG     1       7.140   0.114  -0.223  1.00  0.00    -0.360 OA
HETATM   25  H   LIG     1       7.518   0.982  -0.002  1.00  0.00     0.217 HD
ENDBRANCH  18  24
ENDBRANCH   4  17
TORSDOF 3
