REMARK  2 active torsions:
REMARK  status: ('A' for Active; 'I' for Inactive)
REMARK    1  A    between atoms: C_8  and  C_11 
REMARK    2  A    between atoms: C_9  and  C_16 
ROOT
HETATM    1  C   LIG     1       3.262  -2.011   0.480  1.00  0.00    -0.034 A 
HETATM    2  C   LIG     1       5.232  -0.606   0.752  1.00  0.00     0.048 A 
HETATM    3  C   LIG     1       3.838  -0.746   0.644  1.00  0.00     0.027 A 
HETATM    4  C   LIG     1       4.080  -3.143   0.427  1.00  0.00     0.011 A 
HETATM    5  C   LIG     1       6.038  -1.754   0.697  1.00  0.00     0.016 A 
HETATM    6  C   LIG     1       5.464  -3.015   0.534  1.00  0.00     0.002 A 
ENDROOT
BRANCH   1   7
HETATM    7  C   LIG     1       1.810  -2.152   0.369  1.00  0.00     0.036 C 
HETATM    8  C   LIG     1       1.118  -2.115  -0.778  1.00  0.00     0.079 A 
HETATM    9  S   LIG     1      -0.602  -2.323  -0.841  1.00  0.00    -0.024 SA
HETATM   10  C   LIG     1       1.641  -1.913  -2.159  1.00  0.00     0.266 A 
HETATM   11  C   LIG     1      -0.641  -2.183  -2.585  1.00  0.00     0.291 A 
HETATM   12  O   LIG     1      -1.653  -2.261  -3.259  1.00  0.00    -0.260 OA
HETATM   13  N   LIG     1       0.615  -1.980  -3.055  1.00  0.00    -0.283 N 
HETATM   14  H   LIG     1       0.782  -1.866  -4.041  1.00  0.00     0.172 HD
HETATM   15  O   LIG     1       2.802  -1.710  -2.474  1.00  0.00    -0.267 OA
ENDBRANCH   1   7
BRANCH   2  16
HETATM   16  C   LIG     1       5.868   0.751   0.926  1.00  0.00     0.417 C 
HETATM   17  F   LIG     1       4.970   1.775   0.963  1.00  0.00    -0.166 F 
HETATM   18  F   LIG     1       6.583   0.844   2.082  1.00  0.00    -0.166 F 
HETATM   19  F   LIG     1       6.739   1.054  -0.076  1.00  0.00    -0.166 F 
ENDBRANCH   2  16
TORSDOF 2
