REMARK  10 active torsions:
REMARK  status: ('A' for Active; 'I' for Inactive)
REMARK    1  A    between atoms: O_2  and  C_14 
REMARK    2  A    between atoms: C_3  and  C_5 
REMARK    3  A    between atoms: C_5  and  C_10 
REMARK    4  A    between atoms: C_10  and  C_15 
REMARK    5  A    between atoms: C_18  and  C_20 
REMARK    6  A    between atoms: C_20  and  C_22 
REMARK    7  A    between atoms: C_22  and  C_23 
REMARK    8  A    between atoms: C_24  and  C_25 
REMARK    9  A    between atoms: C_25  and  C_26 
REMARK   10  A    between atoms: C_26  and  C_28 
ROOT
HETATM    1  O   LIG     1      -0.344  -1.022  -1.454  1.00  0.00    -0.339 OA
HETATM    2  C   LIG     1      -0.727   0.356  -1.353  1.00  0.00     0.065 C 
HETATM    3  C   LIG     1      -0.614   0.917   0.075  1.00  0.00     0.043 C 
HETATM    4  C   LIG     1      -1.266  -0.019   1.078  1.00  0.00     0.045 C 
HETATM    5  C   LIG     1      -0.618  -1.370   0.946  1.00  0.00    -0.015 C 
HETATM    6  C   LIG     1      -0.170  -1.772  -0.323  1.00  0.00     0.083 C 
HETATM    7  C   LIG     1       0.278   1.114  -2.241  1.00  0.00     0.046 C 
HETATM    8  C   LIG     1      -0.442  -2.226   2.054  1.00  0.00    -0.019 C 
HETATM    9  C   LIG     1       0.511  -2.990  -0.504  1.00  0.00    -0.019 C 
HETATM   10  C   LIG     1       0.835  -3.769   0.625  1.00  0.00    -0.020 C 
HETATM   11  C   LIG     1       0.335  -3.386   1.881  1.00  0.00     0.078 C 
HETATM   12  C   LIG     1      -1.029  -1.878   3.398  1.00  0.00     0.052 C 
HETATM   13  C   LIG     1       0.976  -3.384  -1.885  1.00  0.00     0.052 C 
HETATM   14  C   LIG     1       1.698  -4.996   0.483  1.00  0.00     0.052 C 
ENDROOT
BRANCH   2  15
HETATM   15  C   LIG     1      -2.190   0.505  -1.879  1.00  0.00     0.042 C 
BRANCH  15  16
HETATM   16  C   LIG     1      -2.380   0.074  -3.337  1.00  0.00     0.030 C 
BRANCH  16  17
HETATM   17  C   LIG     1      -3.794   0.294  -3.847  1.00  0.00    -0.024 C 
HETATM   18  C   LIG     1      -4.431  -0.444  -4.759  1.00  0.00    -0.087 C 
HETATM   19  C   LIG     1      -3.810  -1.634  -5.425  1.00  0.00     0.043 C 
BRANCH  18  20
HETATM   20  C   LIG     1      -5.850  -0.116  -5.166  1.00  0.00     0.037 C 
BRANCH  20  21
HETATM   21  C   LIG     1      -5.998   0.863  -6.357  1.00  0.00     0.031 C 
BRANCH  21  22
HETATM   22  C   LIG     1      -5.429   0.308  -7.638  1.00  0.00    -0.024 C 
HETATM   23  C   LIG     1      -4.253   0.623  -8.199  1.00  0.00    -0.087 C 
HETATM   24  C   LIG     1      -3.372   1.723  -7.665  1.00  0.00     0.043 C 
BRANCH  23  25
HETATM   25  C   LIG     1      -3.730  -0.167  -9.401  1.00  0.00     0.037 C 
BRANCH  25  26
HETATM   26  C   LIG     1      -2.251  -0.622  -9.356  1.00  0.00     0.031 C 
BRANCH  26  27
HETATM   27  C   LIG     1      -1.237   0.502  -9.447  1.00  0.00    -0.024 C 
HETATM   28  C   LIG     1      -0.322   0.867  -8.546  1.00  0.00    -0.091 C 
HETATM   29  C   LIG     1       0.497   2.126  -8.731  1.00  0.00     0.042 C 
HETATM   30  C   LIG     1      -0.066   0.183  -7.220  1.00  0.00     0.042 C 
ENDBRANCH  26  27
ENDBRANCH  25  26
ENDBRANCH  23  25
ENDBRANCH  21  22
ENDBRANCH  20  21
ENDBRANCH  18  20
ENDBRANCH  16  17
ENDBRANCH  15  16
ENDBRANCH   2  15
BRANCH  11  31
HETATM   31  O   LIG     1       0.654  -4.182   2.950  1.00  0.00    -0.360 OA
HETATM   32  H   LIG     1       0.659  -3.636   3.752  1.00  0.00     0.217 HD
ENDBRANCH  11  31
TORSDOF 10
