REMARK  10 active torsions:
REMARK  status: ('A' for Active; 'I' for Inactive)
REMARK    1  A    between atoms: O_2  and  C_14 
REMARK    2  A    between atoms: C_3  and  C_5 
REMARK    3  A    between atoms: C_5  and  C_10 
REMARK    4  A    between atoms: C_10  and  C_15 
REMARK    5  A    between atoms: C_18  and  C_20 
REMARK    6  A    between atoms: C_20  and  C_22 
REMARK    7  A    between atoms: C_22  and  C_23 
REMARK    8  A    between atoms: C_24  and  C_25 
REMARK    9  A    between atoms: C_25  and  C_26 
REMARK   10  A    between atoms: C_26  and  C_28 
ROOT
HETATM    1  O   LIG     1       0.297   0.853  -1.827  1.00  0.00    -0.339 OA
HETATM    2  C   LIG     1      -0.947   1.357  -1.302  1.00  0.00     0.065 C 
HETATM    3  C   LIG     1      -0.759   2.027   0.030  1.00  0.00     0.043 C 
HETATM    4  C   LIG     1      -0.287   1.029   1.009  1.00  0.00     0.045 C 
HETATM    5  C   LIG     1       0.882   0.266   0.457  1.00  0.00    -0.015 A 
HETATM    6  C   LIG     1       1.133   0.224  -0.934  1.00  0.00     0.083 A 
HETATM    7  C   LIG     1      -1.385   2.591  -2.023  1.00  0.00     0.046 C 
HETATM    8  C   LIG     1       1.731  -0.407   1.335  1.00  0.00    -0.019 A 
HETATM    9  C   LIG     1       2.279  -0.425  -1.453  1.00  0.00    -0.019 A 
HETATM   10  C   LIG     1       3.206  -0.990  -0.548  1.00  0.00    -0.020 A 
HETATM   11  C   LIG     1       2.904  -1.003   0.820  1.00  0.00     0.078 A 
HETATM   12  C   LIG     1       1.400  -0.441   2.805  1.00  0.00     0.052 C 
HETATM   13  C   LIG     1       2.558  -0.439  -2.939  1.00  0.00     0.052 C 
HETATM   14  C   LIG     1       4.496  -1.607  -1.029  1.00  0.00     0.052 C 
ENDROOT
BRANCH   2  15
HETATM   15  C   LIG     1      -2.058   0.293  -1.516  1.00  0.00     0.042 C 
BRANCH  15  16
HETATM   16  C   LIG     1      -2.214  -0.313  -2.977  1.00  0.00     0.030 C 
BRANCH  16  17
HETATM   17  C   LIG     1      -2.652   0.510  -4.214  1.00  0.00    -0.024 C 
HETATM   18  C   LIG     1      -2.108   1.601  -4.864  1.00  0.00    -0.087 C 
HETATM   19  C   LIG     1      -0.779   2.333  -4.600  1.00  0.00     0.043 C 
BRANCH  18  20
HETATM   20  C   LIG     1      -2.850   2.453  -5.873  1.00  0.00     0.037 C 
BRANCH  20  21
HETATM   21  C   LIG     1      -4.292   2.957  -5.653  1.00  0.00     0.031 C 
BRANCH  21  22
HETATM   22  C   LIG     1      -4.612   3.878  -4.493  1.00  0.00    -0.024 C 
HETATM   23  C   LIG     1      -5.148   5.148  -4.557  1.00  0.00    -0.087 C 
HETATM   24  C   LIG     1      -5.438   5.899  -5.825  1.00  0.00     0.043 C 
BRANCH  23  25
HETATM   25  C   LIG     1      -5.555   5.906  -3.300  1.00  0.00     0.037 C 
BRANCH  25  26
HETATM   26  C   LIG     1      -4.753   7.193  -3.049  1.00  0.00     0.031 C 
BRANCH  26  27
HETATM   27  C   LIG     1      -3.308   6.916  -2.856  1.00  0.00    -0.024 C 
HETATM   28  C   LIG     1      -2.318   7.906  -2.685  1.00  0.00    -0.091 C 
HETATM   29  C   LIG     1      -0.916   7.490  -2.432  1.00  0.00     0.042 C 
HETATM   30  C   LIG     1      -2.601   9.359  -2.720  1.00  0.00     0.042 C 
ENDBRANCH  26  27
ENDBRANCH  25  26
ENDBRANCH  23  25
ENDBRANCH  21  22
ENDBRANCH  20  21
ENDBRANCH  18  20
ENDBRANCH  16  17
ENDBRANCH  15  16
ENDBRANCH   2  15
BRANCH  11  31
HETATM   31  O   LIG     1       3.802  -1.584   1.673  1.00  0.00    -0.360 OA
HETATM   32  H   LIG     1       3.627  -1.279   2.578  1.00  0.00     0.217 HD
ENDBRANCH  11  31
TORSDOF 10
