REMARK  6 active torsions:
REMARK  status: ('A' for Active; 'I' for Inactive)
REMARK    1  A    between atoms: O_4  and  C_15 
REMARK    2  A    between atoms: N_5  and  C_12 
REMARK    3  A    between atoms: N_5  and  C_18 
REMARK    4  A    between atoms: C_9  and  C_15 
REMARK    5  A    between atoms: C_22  and  C_24 
REMARK    6  A    between atoms: C_27  and  C_30 
ROOT
HETATM    1  N   LIG     1       7.676   6.634  -0.118  1.00  0.00    -0.148 NA
HETATM    2  N   LIG     1       8.711   5.965  -0.709  1.00  0.00    -0.212 N 
HETATM    3  N   LIG     1      10.201   4.346  -1.115  1.00  0.00    -0.239 NA
HETATM    4  C   LIG     1       7.151   6.047   0.922  1.00  0.00     0.144 A 
HETATM    5  C   LIG     1       7.652   4.736   1.445  1.00  0.00     0.056 A 
HETATM    6  C   LIG     1       8.651   4.125   0.805  1.00  0.00     0.056 A 
HETATM    7  C   LIG     1       9.227   4.739  -0.327  1.00  0.00     0.151 A 
HETATM    8  C   LIG     1       9.438   6.390  -1.815  1.00  0.00     0.088 A 
HETATM    9  C   LIG     1      10.338   5.357  -2.031  1.00  0.00     0.151 A 
ENDROOT
BRANCH   4  10
HETATM   10  N   LIG     1       6.095   6.643   1.576  1.00  0.00    -0.369 N 
HETATM   11  H   LIG     1       5.716   6.139   2.372  1.00  0.00     0.161 HD
BRANCH  10  12
HETATM   12  C   LIG     1       5.120   7.504   0.906  1.00  0.00     0.083 C 
HETATM   13  C   LIG     1       4.576   8.545   1.883  1.00  0.00     0.026 C 
HETATM   14  C   LIG     1       3.760   7.933   3.021  1.00  0.00     0.009 C 
HETATM   15  C   LIG     1       2.655   6.948   2.565  1.00  0.00     0.019 C 
HETATM   16  C   LIG     1       3.170   5.978   1.477  1.00  0.00     0.009 C 
HETATM   17  C   LIG     1       3.958   6.669   0.364  1.00  0.00     0.026 C 
BRANCH  15  18
HETATM   18  C   LIG     1       2.044   6.173   3.782  1.00  0.00     0.054 C 
HETATM   19  C   LIG     1       1.442   7.126   4.824  1.00  0.00     0.045 C 
HETATM   20  C   LIG     1       0.968   5.165   3.356  1.00  0.00     0.045 C 
BRANCH  18  21
HETATM   21  O   LIG     1       3.097   5.434   4.417  1.00  0.00    -0.390 OA
HETATM   22  H   LIG     1       2.714   4.965   5.179  1.00  0.00     0.210 HD
ENDBRANCH  18  21
ENDBRANCH  15  18
ENDBRANCH  10  12
ENDBRANCH   4  10
BRANCH   8  23
HETATM   23  C   LIG     1       9.243   7.650  -2.543  1.00  0.00    -0.005 A 
HETATM   24  C   LIG     1       7.983   8.261  -2.617  1.00  0.00     0.030 A 
HETATM   25  C   LIG     1       7.780   9.460  -3.318  1.00  0.00     0.048 A 
HETATM   26  C   LIG     1       8.869  10.057  -3.964  1.00  0.00     0.016 A 
HETATM   27  C   LIG     1      10.128   9.462  -3.912  1.00  0.00     0.002 A 
HETATM   28  C   LIG     1      10.312   8.266  -3.210  1.00  0.00     0.014 A 
BRANCH  25  29
HETATM   29  C   LIG     1       6.413  10.088  -3.387  1.00  0.00     0.417 C 
HETATM   30  F   LIG     1       5.449   9.396  -2.716  1.00  0.00    -0.166 F 
HETATM   31  F   LIG     1       5.961  10.202  -4.668  1.00  0.00    -0.166 F 
HETATM   32  F   LIG     1       6.390  11.349  -2.872  1.00  0.00    -0.166 F 
ENDBRANCH  25  29
ENDBRANCH   8  23
TORSDOF 6
