REMARK  6 active torsions:
REMARK  status: ('A' for Active; 'I' for Inactive)
REMARK    1  A    between atoms: O_1  and  C_21 
REMARK    2  A    between atoms: C_5  and  C_10 
REMARK    3  A    between atoms: C_12  and  C_13 
REMARK    4  A    between atoms: C_15  and  C_16 
REMARK    5  A    between atoms: C_17  and  C_18 
REMARK    6  A    between atoms: C_20  and  C_21 
ROOT
HETATM    1  C   LIG     1       5.756   3.284   8.724  1.00  0.00     0.009 C 
HETATM    2  C   LIG     1       4.982   3.728   7.720  1.00  0.00     0.007 C 
ENDROOT
BRANCH   2   3
HETATM    3  C   LIG     1       5.115   3.387   6.305  1.00  0.00    -0.062 C 
HETATM    4  C   LIG     1       6.217   2.434   5.905  1.00  0.00     0.048 C 
HETATM    5  C   LIG     1       4.227   3.903   5.429  1.00  0.00     0.007 C 
BRANCH   5   6
HETATM    6  C   LIG     1       4.243   3.703   3.996  1.00  0.00     0.001 C 
HETATM    7  C   LIG     1       3.163   3.873   3.219  1.00  0.00     0.006 C 
BRANCH   7   8
HETATM    8  C   LIG     1       3.137   3.661   1.779  1.00  0.00    -0.064 C 
HETATM    9  C   LIG     1       1.877   3.033   1.241  1.00  0.00     0.048 C 
HETATM   10  C   LIG     1       4.154   4.050   0.984  1.00  0.00     0.005 C 
BRANCH  10  11
HETATM   11  C   LIG     1       4.231   3.919  -0.502  1.00  0.00     0.192 C 
BRANCH  11  12
HETATM   12  O   LIG     1       4.459   5.209  -1.049  1.00  0.00    -0.397 OA
HETATM   13  H   LIG     1       3.835   5.814  -0.613  1.00  0.00     0.209 HD
ENDBRANCH  11  12
ENDBRANCH  10  11
ENDBRANCH   7   8
ENDBRANCH   5   6
ENDBRANCH   2   3
BRANCH   1  14
HETATM   14  C   LIG     1       5.578   3.670  10.122  1.00  0.00    -0.048 C 
HETATM   15  C   LIG     1       6.771   4.429  10.749  1.00  0.00    -0.020 C 
HETATM   16  C   LIG     1       6.361   5.103  12.085  1.00  0.00     0.014 C 
HETATM   17  C   LIG     1       7.282   5.562   9.827  1.00  0.00     0.020 C 
HETATM   18  C   LIG     1       7.943   3.454  11.009  1.00  0.00     0.020 C 
HETATM   19  C   LIG     1       5.556   4.170  12.973  1.00  0.00     0.005 C 
HETATM   20  C   LIG     1       4.268   3.757  12.269  1.00  0.00     0.034 C 
HETATM   21  C   LIG     1       4.451   3.378  10.814  1.00  0.00    -0.077 C 
HETATM   22  C   LIG     1       3.247   2.647  10.259  1.00  0.00     0.044 C 
ENDBRANCH   1  14
TORSDOF 6
