REMARK  13 active torsions:
REMARK  status: ('A' for Active; 'I' for Inactive)
REMARK    1  A    between atoms: O_2  and  C_24 
REMARK    2  A    between atoms: C_3  and  C_4 
REMARK    3  A    between atoms: C_4  and  C_6 
REMARK    4  A    between atoms: C_6  and  C_8 
REMARK    5  A    between atoms: C_7  and  C_8 
REMARK    6  A    between atoms: C_7  and  C_10 
REMARK    7  A    between atoms: C_10  and  C_13 
REMARK    8  A    between atoms: C_13  and  C_15 
REMARK    9  A    between atoms: C_15  and  C_16 
REMARK   10  A    between atoms: C_16  and  C_18 
REMARK   11  A    between atoms: C_18  and  C_21 
REMARK   12  A    between atoms: C_21  and  C_25 
REMARK   13  A    between atoms: C_25  and  C_26 
ROOT
HETATM    1  O   LIG     1      -1.897   5.573  -0.826  1.00  0.00    -0.339 OA
HETATM    2  C   LIG     1      -2.647   4.436  -0.344  1.00  0.00     0.064 C 
HETATM    3  C   LIG     1      -3.973   4.935   0.236  1.00  0.00     0.043 C 
HETATM    4  C   LIG     1      -3.752   5.910   1.377  1.00  0.00     0.045 C 
HETATM    5  C   LIG     1      -1.789   3.656   0.669  1.00  0.00     0.046 C 
HETATM    6  C   LIG     1      -2.582   6.829   1.155  1.00  0.00    -0.015 A 
HETATM    7  C   LIG     1      -1.737   6.627   0.045  1.00  0.00     0.083 A 
HETATM    8  C   LIG     1      -2.297   7.868   2.069  1.00  0.00    -0.019 A 
HETATM    9  C   LIG     1      -0.661   7.496  -0.220  1.00  0.00    -0.019 A 
HETATM   10  C   LIG     1      -0.345   8.510   0.708  1.00  0.00    -0.020 A 
HETATM   11  C   LIG     1      -1.167   8.678   1.842  1.00  0.00     0.078 A 
HETATM   12  C   LIG     1      -3.143   8.083   3.300  1.00  0.00     0.052 C 
HETATM   13  C   LIG     1       0.166   7.267  -1.464  1.00  0.00     0.052 C 
HETATM   14  C   LIG     1       0.858   9.396   0.506  1.00  0.00     0.052 C 
ENDROOT
BRANCH   2  15
HETATM   15  C   LIG     1      -2.917   3.548  -1.594  1.00  0.00     0.038 C 
BRANCH  15  16
HETATM   16  C   LIG     1      -3.727   2.268  -1.327  1.00  0.00     0.003 C 
BRANCH  16  17
HETATM   17  C   LIG     1      -4.024   1.500  -2.620  1.00  0.00     0.004 C 
BRANCH  17  18
HETATM   18  C   LIG     1      -4.834   0.195  -2.417  1.00  0.00    -0.019 C 
HETATM   19  C   LIG     1      -4.976  -0.501  -3.777  1.00  0.00     0.010 C 
BRANCH  18  20
HETATM   20  C   LIG     1      -6.213   0.476  -1.781  1.00  0.00     0.004 C 
BRANCH  20  21
HETATM   21  C   LIG     1      -7.076  -0.768  -1.547  1.00  0.00     0.001 C 
BRANCH  21  22
HETATM   22  C   LIG     1      -8.408  -0.388  -0.887  1.00  0.00     0.004 C 
BRANCH  22  23
HETATM   23  C   LIG     1      -9.350  -1.584  -0.615  1.00  0.00    -0.019 C 
HETATM   24  C   LIG     1     -10.681  -1.033  -0.083  1.00  0.00     0.010 C 
BRANCH  23  25
HETATM   25  C   LIG     1      -8.701  -2.604   0.347  1.00  0.00     0.004 C 
BRANCH  25  26
HETATM   26  C   LIG     1      -9.536  -3.841   0.698  1.00  0.00     0.001 C 
BRANCH  26  27
HETATM   27  C   LIG     1      -9.895  -4.720  -0.508  1.00  0.00     0.004 C 
BRANCH  27  28
HETATM   28  C   LIG     1     -10.733  -5.956  -0.120  1.00  0.00    -0.023 C 
HETATM   29  C   LIG     1     -12.068  -5.555   0.511  1.00  0.00     0.009 C 
HETATM   30  C   LIG     1     -10.993  -6.843  -1.342  1.00  0.00     0.009 C 
ENDBRANCH  27  28
ENDBRANCH  26  27
ENDBRANCH  25  26
ENDBRANCH  23  25
ENDBRANCH  22  23
ENDBRANCH  21  22
ENDBRANCH  20  21
ENDBRANCH  18  20
ENDBRANCH  17  18
ENDBRANCH  16  17
ENDBRANCH  15  16
ENDBRANCH   2  15
BRANCH  11  31
HETATM   31  O   LIG     1      -0.814   9.665   2.722  1.00  0.00    -0.360 OA
HETATM   32  H   LIG     1      -1.310   9.558   3.555  1.00  0.00     0.217 HD
ENDBRANCH  11  31
TORSDOF 13
