REMARK  10 active torsions:
REMARK  status: ('A' for Active; 'I' for Inactive)
REMARK    1  A    between atoms: O_2  and  C_11 
REMARK    2  A    between atoms: O_3  and  C_12 
REMARK    3  A    between atoms: O_4  and  C_14 
REMARK    4  A    between atoms: O_6  and  C_17 
REMARK    5  A    between atoms: O_7  and  C_19 
REMARK    6  A    between atoms: O_8  and  C_22 
REMARK    7  A    between atoms: O_10  and  C_31 
REMARK    8  A    between atoms: C_13  and  C_16 
REMARK    9  A    between atoms: C_15  and  C_17 
REMARK   10  A    between atoms: C_24  and  C_26 
ROOT
HETATM    1  O   LIG     1       2.037   2.919   2.478  1.00  0.00    -0.308 OA
HETATM    2  O   LIG     1       2.241   3.054   6.524  1.00  0.00    -0.287 OA
HETATM    3  C   LIG     1       1.723   0.528   2.396  1.00  0.00     0.041 A 
HETATM    4  C   LIG     1       1.949   1.716   3.150  1.00  0.00     0.104 A 
HETATM    5  C   LIG     1       1.549  -0.656   3.153  1.00  0.00     0.080 A 
HETATM    6  C   LIG     1       2.056   1.680   4.560  1.00  0.00     0.082 A 
HETATM    7  C   LIG     1       1.721  -0.705   4.539  1.00  0.00     0.074 A 
HETATM    8  C   LIG     1       1.987   0.461   5.239  1.00  0.00     0.085 A 
HETATM    9  C   LIG     1       2.190   2.953   5.301  1.00  0.00     0.190 A 
HETATM   10  C   LIG     1       2.167   4.110   3.175  1.00  0.00     0.090 A 
HETATM   11  C   LIG     1       2.236   4.181   4.508  1.00  0.00     0.094 A 
ENDROOT
BRANCH   3  12
HETATM   12  C   LIG     1       1.498   0.491   0.864  1.00  0.00     0.192 C 
HETATM   13  O   LIG     1       1.860  -0.769   0.237  1.00  0.00    -0.368 OA
HETATM   14  C   LIG     1       3.214  -0.957  -0.205  1.00  0.00     0.177 C 
HETATM   15  C   LIG     1       3.730   0.191  -1.083  1.00  0.00     0.180 C 
HETATM   16  C   LIG     1       3.428   1.555  -0.456  1.00  0.00     0.181 C 
HETATM   17  C   LIG     1       1.942   1.650  -0.067  1.00  0.00     0.183 C 
BRANCH  14  18
HETATM   18  C   LIG     1       4.160  -1.300   0.951  1.00  0.00     0.198 C 
BRANCH  18  19
HETATM   19  O   LIG     1       3.762  -2.539   1.539  1.00  0.00    -0.398 OA
HETATM   20  H   LIG     1       2.797  -2.446   1.695  1.00  0.00     0.209 HD
ENDBRANCH  18  19
ENDBRANCH  14  18
BRANCH  15  21
HETATM   21  O   LIG     1       3.095   0.139  -2.373  1.00  0.00    -0.390 OA
HETATM   22  H   LIG     1       3.422  -0.659  -2.830  1.00  0.00     0.210 HD
ENDBRANCH  15  21
BRANCH  16  23
HETATM   23  O   LIG     1       4.282   1.785   0.663  1.00  0.00    -0.390 OA
HETATM   24  H   LIG     1       5.192   1.878   0.327  1.00  0.00     0.210 HD
ENDBRANCH  16  23
BRANCH  17  25
HETATM   25  O   LIG     1       1.130   1.647  -1.265  1.00  0.00    -0.390 OA
HETATM   26  H   LIG     1       1.474   0.931  -1.841  1.00  0.00     0.210 HD
ENDBRANCH  17  25
ENDBRANCH   3  12
BRANCH   5  27
HETATM   27  O   LIG     1       1.198  -1.829   2.535  1.00  0.00    -0.360 OA
HETATM   28  H   LIG     1       0.796  -2.429   3.188  1.00  0.00     0.217 HD
ENDBRANCH   5  27
BRANCH  10  29
HETATM   29  C   LIG     1       2.259   5.339   2.344  1.00  0.00    -0.002 A 
HETATM   30  C   LIG     1       1.780   6.579   2.804  1.00  0.00     0.017 A 
HETATM   31  C   LIG     1       1.892   7.735   2.025  1.00  0.00     0.037 A 
HETATM   32  C   LIG     1       2.474   7.665   0.768  1.00  0.00     0.065 A 
HETATM   33  C   LIG     1       2.950   6.456   0.279  1.00  0.00     0.037 A 
HETATM   34  C   LIG     1       2.844   5.302   1.067  1.00  0.00     0.017 A 
BRANCH  32  35
HETATM   35  O   LIG     1       2.560   8.815   0.043  1.00  0.00    -0.361 OA
HETATM   36  H   LIG     1       2.962   8.612  -0.817  1.00  0.00     0.217 HD
ENDBRANCH  32  35
ENDBRANCH  10  29
BRANCH   8  37
HETATM   37  O   LIG     1       2.161   0.390   6.590  1.00  0.00    -0.360 OA
HETATM   38  H   LIG     1       2.150  -0.528   6.900  1.00  0.00     0.217 HD
ENDBRANCH   8  37
TORSDOF 10
