REMARK  11 active torsions:
REMARK  status: ('A' for Active; 'I' for Inactive)
REMARK    1  A    between atoms: O_1  and  C_10 
REMARK    2  A    between atoms: O_1  and  C_17 
REMARK    3  A    between atoms: O_2  and  C_13 
REMARK    4  A    between atoms: O_3  and  C_14 
REMARK    5  A    between atoms: O_4  and  C_15 
REMARK    6  A    between atoms: O_5  and  C_16 
REMARK    7  A    between atoms: O_8  and  C_23 
REMARK    8  A    between atoms: O_9  and  C_25 
REMARK    9  A    between atoms: C_10  and  C_16 
REMARK   10  A    between atoms: C_17  and  C_18 
REMARK   11  A    between atoms: C_19  and  C_20 
ROOT
HETATM    1  C   LIG     1       0.080  -1.292  -0.117  1.00  0.00     0.160 C 
HETATM    2  C   LIG     1      -0.839  -1.276   1.123  1.00  0.00     0.084 C 
HETATM    3  C   LIG     1       0.204  -2.761  -0.628  1.00  0.00     0.084 C 
HETATM    4  C   LIG     1      -0.336  -2.219   2.214  1.00  0.00     0.152 C 
HETATM    5  C   LIG     1       0.590  -3.778   0.449  1.00  0.00     0.152 C 
HETATM    6  C   LIG     1      -0.282  -3.661   1.704  1.00  0.00     0.175 C 
ENDROOT
BRANCH   1   7
HETATM    7  O   LIG     1       1.416  -0.916   0.293  1.00  0.00    -0.295 OA
BRANCH   7   8
HETATM    8  C   LIG     1       1.622   0.326   0.809  1.00  0.00     0.284 C 
HETATM    9  O   LIG     1       0.877   1.276   0.713  1.00  0.00    -0.260 OA
BRANCH   8  10
HETATM   10  C   LIG     1       2.822   0.247   1.664  1.00  0.00     0.083 C 
HETATM   11  C   LIG     1       3.348   1.338   2.241  1.00  0.00     0.017 C 
BRANCH  11  12
HETATM   12  C   LIG     1       4.544   1.277   3.098  1.00  0.00    -0.033 A 
HETATM   13  C   LIG     1       5.416   2.375   3.131  1.00  0.00     0.050 A 
HETATM   14  C   LIG     1       6.589   2.316   3.887  1.00  0.00     0.099 A 
HETATM   15  C   LIG     1       6.896   1.175   4.627  1.00  0.00     0.098 A 
HETATM   16  C   LIG     1       6.020   0.096   4.640  1.00  0.00     0.040 A 
HETATM   17  C   LIG     1       4.844   0.153   3.887  1.00  0.00     0.014 A 
BRANCH  14  18
HETATM   18  O   LIG     1       7.460   3.370   3.899  1.00  0.00    -0.358 OA
HETATM   19  H   LIG     1       7.107   4.088   3.352  1.00  0.00     0.217 HD
ENDBRANCH  14  18
BRANCH  15  20
HETATM   20  O   LIG     1       8.062   1.126   5.337  1.00  0.00    -0.358 OA
HETATM   21  H   LIG     1       8.152   0.250   5.743  1.00  0.00     0.217 HD
ENDBRANCH  15  20
ENDBRANCH  11  12
ENDBRANCH   8  10
ENDBRANCH   7   8
ENDBRANCH   1   7
BRANCH   1  22
HETATM   22  C   LIG     1      -0.567  -0.476  -1.276  1.00  0.00     0.176 C 
HETATM   23  O   LIG     1      -0.866  -0.960  -2.361  1.00  0.00    -0.648 OA
BRANCH  22  24
HETATM   24  O   LIG     1      -0.829   0.819  -1.010  1.00  0.00    -0.774 OA
HETATM   25  H   LIG     1      -0.454   1.154  -0.160  1.00  0.00     0.167 HD
ENDBRANCH  22  24
ENDBRANCH   1  22
BRANCH   4  26
HETATM   26  O   LIG     1      -1.216  -2.136   3.334  1.00  0.00    -0.393 OA
HETATM   27  H   LIG     1      -0.999  -2.906   3.897  1.00  0.00     0.210 HD
ENDBRANCH   4  26
BRANCH   5  28
HETATM   28  O   LIG     1       1.965  -3.643   0.834  1.00  0.00    -0.393 OA
HETATM   29  H   LIG     1       2.211  -2.703   0.774  1.00  0.00     0.210 HD
ENDBRANCH   5  28
BRANCH   6  30
HETATM   30  O   LIG     1       0.245  -4.487   2.753  1.00  0.00    -0.390 OA
HETATM   31  H   LIG     1       1.178  -4.665   2.513  1.00  0.00     0.210 HD
ENDBRANCH   6  30
TORSDOF 11
