REMARK  29 active torsions:
REMARK  status: ('A' for Active; 'I' for Inactive)
REMARK    1  A    between atoms: O_2  and  C_12 
REMARK    2  A    between atoms: O_3  and  C_13 
REMARK    3  A    between atoms: O_5  and  C_34 
REMARK    4  A    between atoms: C_8  and  C_12 
REMARK    5  A    between atoms: C_9  and  C_13 
REMARK    6  A    between atoms: C_12  and  C_14 
REMARK    7  A    between atoms: C_13  and  C_15 
REMARK    8  A    between atoms: C_14  and  C_16 
REMARK    9  A    between atoms: C_15  and  C_17 
REMARK   10  A    between atoms: C_16  and  C_18 
REMARK   11  A    between atoms: C_17  and  C_19 
REMARK   12  A    between atoms: C_18  and  C_20 
REMARK   13  A    between atoms: C_19  and  C_21 
REMARK   14  A    between atoms: C_20  and  C_22 
REMARK   15  A    between atoms: C_21  and  C_24 
REMARK   16  A    between atoms: C_22  and  C_23 
REMARK   17  A    between atoms: C_23  and  C_25 
REMARK   18  A    between atoms: C_24  and  C_27 
REMARK   19  A    between atoms: C_25  and  C_26 
REMARK   20  A    between atoms: C_26  and  C_29 
REMARK   21  A    between atoms: C_27  and  C_28 
REMARK   22  A    between atoms: C_28  and  C_30 
REMARK   23  A    between atoms: C_29  and  C_33 
REMARK   24  A    between atoms: C_30  and  C_31 
REMARK   25  A    between atoms: C_31  and  C_32 
REMARK   26  A    between atoms: C_32  and  C_34 
REMARK   27  A    between atoms: C_33  and  C_36 
REMARK   28  A    between atoms: C_34  and  C_35 
REMARK   29  A    between atoms: C_35  and  C_37 
ROOT
HETATM    1  C   LIG     1       2.048   1.120  -3.048  1.00  0.00     0.147 C 
ENDROOT
BRANCH   1   2
HETATM    2  O   LIG     1       3.088   0.221  -3.440  1.00  0.00    -0.393 OA
HETATM    3  H   LIG     1       3.940   0.602  -3.170  1.00  0.00     0.210 HD
ENDBRANCH   1   2
BRANCH   1   4
HETATM    4  C   LIG     1       2.178   1.559  -1.583  1.00  0.00     0.150 C 
HETATM    5  O   LIG     1       2.000   0.482  -0.668  1.00  0.00    -0.376 OA
HETATM    6  C   LIG     1       2.479   0.940   0.607  1.00  0.00     0.150 C 
HETATM    7  C   LIG     1       3.664   1.835   0.283  1.00  0.00     0.037 C 
HETATM    8  C   LIG     1       3.457   2.256  -1.153  1.00  0.00     0.037 C 
BRANCH   6   9
HETATM    9  C   LIG     1       1.454   1.849   1.375  1.00  0.00     0.147 C 
BRANCH   9  10
HETATM   10  O   LIG     1       0.154   1.406   1.635  1.00  0.00    -0.393 OA
HETATM   11  H   LIG     1      -0.256   1.184   0.781  1.00  0.00     0.210 HD
ENDBRANCH   9  10
BRANCH   9  12
HETATM   12  C   LIG     1       1.964   2.319   2.732  1.00  0.00     0.034 C 
BRANCH  12  13
HETATM   13  C   LIG     1       2.462   1.214   3.611  1.00  0.00     0.002 C 
BRANCH  13  14
HETATM   14  C   LIG     1       3.025   1.522   4.943  1.00  0.00     0.000 C 
BRANCH  14  15
HETATM   15  C   LIG     1       3.605   0.221   5.516  1.00  0.00     0.000 C 
BRANCH  15  16
HETATM   16  C   LIG     1       2.594  -0.967   5.671  1.00  0.00     0.000 C 
BRANCH  16  17
HETATM   17  C   LIG     1       2.055  -1.772   4.420  1.00  0.00     0.000 C 
BRANCH  17  18
HETATM   18  C   LIG     1       1.058  -1.203   3.409  1.00  0.00     0.000 C 
BRANCH  18  19
HETATM   19  C   LIG     1       0.604  -1.994   2.189  1.00  0.00     0.000 C 
BRANCH  19  20
HETATM   20  C   LIG     1      -0.270  -1.125   1.268  1.00  0.00     0.000 C 
BRANCH  20  21
HETATM   21  C   LIG     1      -1.478  -0.439   1.983  1.00  0.00    -0.000 C 
BRANCH  21  22
HETATM   22  C   LIG     1      -2.454  -1.508   2.376  1.00  0.00    -0.005 C 
HETATM   23  C   LIG     1      -3.690  -0.963   3.053  1.00  0.00     0.005 C 
ENDBRANCH  21  22
ENDBRANCH  20  21
ENDBRANCH  19  20
ENDBRANCH  18  19
ENDBRANCH  17  18
ENDBRANCH  16  17
ENDBRANCH  15  16
ENDBRANCH  14  15
ENDBRANCH  13  14
ENDBRANCH  12  13
ENDBRANCH   9  12
ENDBRANCH   6   9
ENDBRANCH   1   4
BRANCH   1  24
HETATM   24  C   LIG     1       0.690   0.429  -3.310  1.00  0.00     0.034 C 
BRANCH  24  25
HETATM   25  C   LIG     1      -0.555   1.294  -3.018  1.00  0.00     0.002 C 
BRANCH  25  26
HETATM   26  C   LIG     1      -0.656   2.524  -3.926  1.00  0.00     0.000 C 
BRANCH  26  27
HETATM   27  C   LIG     1      -1.891   3.395  -3.634  1.00  0.00     0.007 C 
BRANCH  27  28
HETATM   28  C   LIG     1      -1.982   4.602  -4.540  1.00  0.00     0.078 C 
BRANCH  28  29
HETATM   29  C   LIG     1      -2.003   4.243  -6.002  1.00  0.00     0.127 C 
HETATM   30  O   LIG     1      -1.117   4.673  -6.650  1.00  0.00    -0.298 OA
BRANCH  29  31
HETATM   31  C   LIG     1      -3.160   3.392  -6.577  1.00  0.00     0.078 C 
BRANCH  31  32
HETATM   32  C   LIG     1      -2.682   2.079  -7.214  1.00  0.00     0.007 C 
BRANCH  32  33
HETATM   33  C   LIG     1      -3.730   1.301  -8.039  1.00  0.00     0.003 C 
BRANCH  33  34
HETATM   34  C   LIG     1      -4.441   2.029  -9.202  1.00  0.00     0.032 C 
BRANCH  34  35
HETATM   35  C   LIG     1      -3.570   2.405 -10.408  1.00  0.00     0.122 C 
BRANCH  35  36
HETATM   36  O   LIG     1      -4.376   2.780 -11.526  1.00  0.00    -0.395 OA
HETATM   37  H   LIG     1      -3.810   2.648 -12.312  1.00  0.00     0.210 HD
ENDBRANCH  35  36
BRANCH  35  38
HETATM   38  C   LIG     1      -2.437   3.433 -10.259  1.00  0.00     0.076 C 
BRANCH  38  39
HETATM   39  C   LIG     1      -2.421   4.842  -9.767  1.00  0.00     0.018 C 
HETATM   40  C   LIG     1      -3.077   5.989  -9.979  1.00  0.00     0.018 C 
HETATM   41  C   LIG     1      -2.520   7.079  -9.164  1.00  0.00     0.151 C 
HETATM   42  O   LIG     1      -1.276   6.561  -8.685  1.00  0.00    -0.309 OA
HETATM   43  C   LIG     1      -3.506   7.322  -8.037  1.00  0.00     0.044 C 
HETATM   44  C   LIG     1      -1.208   5.280  -9.071  1.00  0.00     0.289 C 
HETATM   45  O   LIG     1      -0.183   4.527  -8.947  1.00  0.00    -0.260 OA
ENDBRANCH  38  39
ENDBRANCH  35  38
ENDBRANCH  34  35
ENDBRANCH  33  34
ENDBRANCH  32  33
ENDBRANCH  31  32
ENDBRANCH  29  31
ENDBRANCH  28  29
ENDBRANCH  27  28
ENDBRANCH  26  27
ENDBRANCH  25  26
ENDBRANCH  24  25
ENDBRANCH   1  24
TORSDOF 29
