REMARK  6 active torsions:
REMARK  status: ('A' for Active; 'I' for Inactive)
REMARK    1  A    between atoms: O_1  and  C_13 
REMARK    2  A    between atoms: O_2  and  C_15 
REMARK    3  A    between atoms: O_3  and  C_16 
REMARK    4  A    between atoms: O_4  and  C_21 
REMARK    5  A    between atoms: C_6  and  C_11 
REMARK    6  A    between atoms: C_11  and  C_14 
ROOT
HETATM    1  N   LIG     1       2.704  -5.082   0.693  1.00  0.00     0.093 N 
HETATM    2  C   LIG     1       1.302  -4.622   0.658  1.00  0.00     0.258 C 
HETATM    3  C   LIG     1       1.110  -3.109   0.613  1.00  0.00    -0.013 C 
HETATM    4  C   LIG     1       2.180  -2.246   0.332  1.00  0.00    -0.012 C 
HETATM    5  C   LIG     1       3.576  -2.818   0.360  1.00  0.00     0.072 C 
HETATM    6  C   LIG     1       3.620  -4.083   1.223  1.00  0.00     0.275 C 
HETATM    7  C   LIG     1      -0.171  -2.568   0.799  1.00  0.00     0.049 C 
HETATM    8  C   LIG     1       1.924  -0.892   0.057  1.00  0.00     0.108 C 
HETATM    9  C   LIG     1      -0.408  -1.199   0.636  1.00  0.00     0.104 C 
HETATM   10  C   LIG     1       0.633  -0.355   0.199  1.00  0.00     0.135 C 
HETATM   11  H   LIG     1       2.769  -5.950   1.219  1.00  0.00     0.316 HD
ENDROOT
BRANCH   2  12
HETATM   12  C   LIG     1       0.577  -5.303  -0.541  1.00  0.00     0.079 C 
BRANCH  12  13
HETATM   13  C   LIG     1       1.136  -4.934  -1.904  1.00  0.00    -0.056 A 
HETATM   14  C   LIG     1       2.169  -5.692  -2.479  1.00  0.00     0.010 A 
HETATM   15  C   LIG     1       2.718  -5.316  -3.709  1.00  0.00     0.037 A 
HETATM   16  C   LIG     1       2.255  -4.184  -4.374  1.00  0.00     0.068 A 
HETATM   17  C   LIG     1       1.220  -3.433  -3.806  1.00  0.00     0.037 A 
HETATM   18  C   LIG     1       0.668  -3.810  -2.583  1.00  0.00     0.010 A 
BRANCH  16  19
HETATM   19  O   LIG     1       2.869  -3.897  -5.562  1.00  0.00    -0.356 OA
HETATM   20  C   LIG     1       2.415  -2.716  -6.222  1.00  0.00     0.210 C 
ENDBRANCH  16  19
ENDBRANCH  12  13
ENDBRANCH   2  12
BRANCH   8  21
HETATM   21  O   LIG     1       2.968  -0.096  -0.331  1.00  0.00    -0.357 OA
HETATM   22  H   LIG     1       3.597  -0.650  -0.823  1.00  0.00     0.217 HD
ENDBRANCH   8  21
BRANCH   9  23
HETATM   23  O   LIG     1      -1.654  -0.643   0.809  1.00  0.00    -0.353 OA
HETATM   24  C   LIG     1      -2.488  -1.289   1.768  1.00  0.00     0.210 C 
ENDBRANCH   9  23
BRANCH  10  25
HETATM   25  O   LIG     1       0.303   0.969   0.029  1.00  0.00    -0.351 OA
HETATM   26  C   LIG     1       0.951   1.658  -1.033  1.00  0.00     0.210 C 
ENDBRANCH  10  25
TORSDOF 6
