REMARK  6 active torsions:
REMARK  status: ('A' for Active; 'I' for Inactive)
REMARK    1  A    between atoms: O_1  and  C_12 
REMARK    2  A    between atoms: O_2  and  C_15 
REMARK    3  A    between atoms: O_3  and  C_16 
REMARK    4  A    between atoms: O_4  and  C_21 
REMARK    5  A    between atoms: C_6  and  C_11 
REMARK    6  A    between atoms: C_11  and  C_14 
ROOT
HETATM    1  N   LIG     1      -5.036   2.065  -2.539  1.00  0.00     0.093 N 
HETATM    2  C   LIG     1      -3.863   2.688  -1.928  1.00  0.00     0.258 C 
HETATM    3  C   LIG     1      -3.187   1.957  -0.776  1.00  0.00    -0.013 C 
HETATM    4  C   LIG     1      -3.466   0.621  -0.518  1.00  0.00    -0.012 C 
HETATM    5  C   LIG     1      -4.710   0.092  -1.192  1.00  0.00     0.072 C 
HETATM    6  C   LIG     1      -5.691   1.147  -1.647  1.00  0.00     0.275 C 
HETATM    7  C   LIG     1      -2.646  -0.157   0.364  1.00  0.00     0.111 C 
HETATM    8  C   LIG     1      -2.264   2.643   0.044  1.00  0.00     0.049 C 
HETATM    9  C   LIG     1      -1.698   0.546   1.161  1.00  0.00     0.135 C 
HETATM   10  C   LIG     1      -1.581   1.942   1.056  1.00  0.00     0.104 C 
HETATM   11  H   LIG     1      -5.703   2.785  -2.823  1.00  0.00     0.316 HD
ENDROOT
BRANCH   2  12
HETATM   12  C   LIG     1      -2.839   3.064  -3.068  1.00  0.00     0.079 C 
BRANCH  12  13
HETATM   13  C   LIG     1      -2.299   1.933  -3.936  1.00  0.00    -0.056 A 
HETATM   14  C   LIG     1      -1.485   0.915  -3.427  1.00  0.00     0.010 A 
HETATM   15  C   LIG     1      -1.048  -0.136  -4.249  1.00  0.00     0.037 A 
HETATM   16  C   LIG     1      -1.382  -0.166  -5.602  1.00  0.00     0.068 A 
HETATM   17  C   LIG     1      -2.151   0.865  -6.131  1.00  0.00     0.037 A 
HETATM   18  C   LIG     1      -2.606   1.904  -5.305  1.00  0.00     0.010 A 
BRANCH  16  19
HETATM   19  O   LIG     1      -0.969  -1.274  -6.293  1.00  0.00    -0.356 OA
HETATM   20  C   LIG     1      -0.707  -1.091  -7.680  1.00  0.00     0.210 C 
ENDBRANCH  16  19
ENDBRANCH  12  13
ENDBRANCH   2  12
BRANCH   7  21
HETATM   21  O   LIG     1      -2.730  -1.524   0.495  1.00  0.00    -0.352 OA
HETATM   22  C   LIG     1      -3.475  -2.259  -0.482  1.00  0.00     0.210 C 
ENDBRANCH   7  21
BRANCH  10  23
HETATM   23  O   LIG     1      -0.741   2.753   1.804  1.00  0.00    -0.353 OA
HETATM   24  C   LIG     1      -0.593   2.433   3.192  1.00  0.00     0.210 C 
ENDBRANCH  10  23
BRANCH   9  25
HETATM   25  O   LIG     1      -0.801   0.034   2.050  1.00  0.00    -0.351 OA
HETATM   26  C   LIG     1      -0.596  -1.302   2.404  1.00  0.00     0.210 C 
ENDBRANCH   9  25
TORSDOF 6
