REMARK  10 active torsions:
REMARK  status: ('A' for Active; 'I' for Inactive)
REMARK    1  A    between atoms: O_2  and  C_11 
REMARK    2  A    between atoms: O_3  and  C_12 
REMARK    3  A    between atoms: O_4  and  C_14 
REMARK    4  A    between atoms: O_5  and  C_17 
REMARK    5  A    between atoms: O_6  and  C_18 
REMARK    6  A    between atoms: O_7  and  C_19 
REMARK    7  A    between atoms: O_10  and  C_31 
REMARK    8  A    between atoms: C_13  and  C_16 
REMARK    9  A    between atoms: C_15  and  C_17 
REMARK   10  A    between atoms: C_24  and  C_26 
ROOT
HETATM    1  O   LIG     1       1.716   0.833   6.867  1.00  0.00    -0.309 OA
HETATM    2  O   LIG     1       2.264   3.870   4.249  1.00  0.00    -0.287 OA
HETATM    3  C   LIG     1       1.852  -0.109   2.768  1.00  0.00     0.041 A 
HETATM    4  C   LIG     1       2.020   1.226   3.191  1.00  0.00     0.094 A 
HETATM    5  C   LIG     1       1.682  -1.073   3.782  1.00  0.00     0.080 A 
HETATM    6  C   LIG     1       1.973   1.562   4.559  1.00  0.00     0.082 A 
HETATM    7  C   LIG     1       1.649  -0.743   5.137  1.00  0.00     0.075 A 
HETATM    8  C   LIG     1       1.784   0.581   5.522  1.00  0.00     0.095 A 
HETATM    9  C   LIG     1       2.095   2.949   5.029  1.00  0.00     0.190 A 
HETATM   10  C   LIG     1       1.825   2.142   7.318  1.00  0.00     0.090 A 
HETATM   11  C   LIG     1       2.001   3.178   6.483  1.00  0.00     0.094 A 
ENDROOT
BRANCH   3  12
HETATM   12  C   LIG     1       1.758  -0.471   1.281  1.00  0.00     0.192 C 
HETATM   13  O   LIG     1       0.489  -1.120   1.137  1.00  0.00    -0.368 OA
HETATM   14  C   LIG     1       0.226  -1.708  -0.140  1.00  0.00     0.177 C 
HETATM   15  C   LIG     1       1.300  -2.731  -0.581  1.00  0.00     0.180 C 
HETATM   16  C   LIG     1       2.515  -2.772   0.356  1.00  0.00     0.181 C 
HETATM   17  C   LIG     1       2.934  -1.338   0.751  1.00  0.00     0.183 C 
BRANCH  14  18
HETATM   18  C   LIG     1      -1.137  -2.392   0.045  1.00  0.00     0.198 C 
BRANCH  18  19
HETATM   19  O   LIG     1      -1.067  -3.335   1.117  1.00  0.00    -0.398 OA
HETATM   20  H   LIG     1      -0.484  -2.917   1.786  1.00  0.00     0.209 HD
ENDBRANCH  18  19
ENDBRANCH  14  18
BRANCH  15  21
HETATM   21  O   LIG     1       1.776  -2.334  -1.886  1.00  0.00    -0.390 OA
HETATM   22  H   LIG     1       1.238  -2.819  -2.539  1.00  0.00     0.210 HD
ENDBRANCH  15  21
BRANCH  16  23
HETATM   23  O   LIG     1       2.274  -3.665   1.436  1.00  0.00    -0.390 OA
HETATM   24  H   LIG     1       2.417  -3.175   2.270  1.00  0.00     0.210 HD
ENDBRANCH  16  23
BRANCH  17  25
HETATM   25  O   LIG     1       3.497  -0.698  -0.421  1.00  0.00    -0.390 OA
HETATM   26  H   LIG     1       3.034  -1.059  -1.209  1.00  0.00     0.210 HD
ENDBRANCH  17  25
ENDBRANCH   3  12
BRANCH   4  27
HETATM   27  O   LIG     1       2.216   2.191   2.235  1.00  0.00    -0.359 OA
HETATM   28  H   LIG     1       2.308   3.065   2.680  1.00  0.00     0.217 HD
ENDBRANCH   4  27
BRANCH   5  29
HETATM   29  O   LIG     1       1.534  -2.390   3.455  1.00  0.00    -0.360 OA
HETATM   30  H   LIG     1       1.196  -2.883   4.224  1.00  0.00     0.217 HD
ENDBRANCH   5  29
BRANCH  10  31
HETATM   31  C   LIG     1       1.737   2.282   8.800  1.00  0.00    -0.002 A 
HETATM   32  C   LIG     1       1.524   1.151   9.613  1.00  0.00     0.017 A 
HETATM   33  C   LIG     1       1.462   1.255  11.008  1.00  0.00     0.037 A 
HETATM   34  C   LIG     1       1.609   2.494  11.613  1.00  0.00     0.065 A 
HETATM   35  C   LIG     1       1.813   3.631  10.845  1.00  0.00     0.037 A 
HETATM   36  C   LIG     1       1.876   3.522   9.450  1.00  0.00     0.017 A 
BRANCH  34  37
HETATM   37  O   LIG     1       1.549   2.556  12.972  1.00  0.00    -0.361 OA
HETATM   38  H   LIG     1       1.676   3.479  13.247  1.00  0.00     0.217 HD
ENDBRANCH  34  37
ENDBRANCH  10  31
TORSDOF 10
