REMARK  5 active torsions:
REMARK  status: ('A' for Active; 'I' for Inactive)
REMARK    1  A    between atoms: O_1  and  C_10 
REMARK    2  A    between atoms: O_2  and  C_14 
REMARK    3  A    between atoms: N_3  and  C_9 
REMARK    4  A    between atoms: C_5  and  C_7 
REMARK    5  A    between atoms: C_7  and  C_9 
ROOT
HETATM    1  C   LIG     1      -1.881   2.193  -0.577  1.00  0.00    -0.016 A 
HETATM    2  C   LIG     1      -1.316   3.499  -0.521  1.00  0.00    -0.043 A 
HETATM    3  C   LIG     1      -1.061   1.018  -0.433  1.00  0.00     0.022 A 
HETATM    4  C   LIG     1      -1.711  -0.296  -0.594  1.00  0.00    -0.012 A 
HETATM    5  C   LIG     1       0.332   1.251  -0.127  1.00  0.00     0.113 A 
HETATM    6  C   LIG     1      -3.114  -0.371  -0.786  1.00  0.00    -0.025 A 
HETATM    7  C   LIG     1       0.047   3.656  -0.276  1.00  0.00     0.047 A 
HETATM    8  C   LIG     1      -3.260   2.037  -0.781  1.00  0.00     0.014 A 
HETATM    9  C   LIG     1       0.857   2.550  -0.057  1.00  0.00     0.100 A 
HETATM   10  C   LIG     1      -3.868   0.792  -0.863  1.00  0.00     0.013 A 
HETATM   11  C   LIG     1      -1.056  -1.564  -0.593  1.00  0.00     0.013 A 
HETATM   12  C   LIG     1      -3.794  -1.598  -0.918  1.00  0.00     0.012 A 
HETATM   13  C   LIG     1      -1.734  -2.786  -0.740  1.00  0.00     0.001 A 
HETATM   14  C   LIG     1      -3.105  -2.801  -0.893  1.00  0.00     0.001 A 
ENDROOT
BRANCH   2  15
HETATM   15  C   LIG     1      -2.122   4.789  -0.682  1.00  0.00     0.069 C 
BRANCH  15  16
HETATM   16  C   LIG     1      -2.697   5.267   0.667  1.00  0.00     0.276 C 
BRANCH  16  17
HETATM   17  N   LIG     1      -3.490   6.511   0.589  1.00  0.00     0.080 N 
HETATM   18  C   LIG     1      -4.154   6.755   1.876  1.00  0.00     0.309 C 
HETATM   19  C   LIG     1      -2.667   7.675   0.250  1.00  0.00     0.309 C 
ENDBRANCH  16  17
ENDBRANCH  15  16
ENDBRANCH   2  15
BRANCH   9  20
HETATM   20  O   LIG     1       2.181   2.775   0.202  1.00  0.00    -0.358 OA
HETATM   21  H   LIG     1       2.334   3.728   0.301  1.00  0.00     0.217 HD
ENDBRANCH   9  20
BRANCH   5  22
HETATM   22  O   LIG     1       1.126   0.138   0.051  1.00  0.00    -0.352 OA
HETATM   23  C   LIG     1       2.156   0.202   1.030  1.00  0.00     0.210 C 
ENDBRANCH   5  22
TORSDOF 5
