REMARK  5 active torsions:
REMARK  status: ('A' for Active; 'I' for Inactive)
REMARK    1  A    between atoms: O_1  and  C_6 
REMARK    2  A    between atoms: O_2  and  C_8 
REMARK    3  A    between atoms: O_3  and  C_9 
REMARK    4  A    between atoms: O_4  and  C_11 
REMARK    5  A    between atoms: CA_7  and  C_11 
ROOT
HETATM    1  N   LIG     1       0.532   3.260  -1.721  1.00  0.00     0.095 N 
HETATM    2  C   LIG     1       0.676   0.859  -1.028  1.00  0.00     0.184 C 
HETATM    3  CA  LIG     1       1.003   2.329  -0.672  1.00  0.00     0.275 C 
HETATM    4  C   LIG     1      -0.827   0.696  -1.272  1.00  0.00     0.179 C 
HETATM    5  C   LIG     1      -1.307   1.677  -2.345  1.00  0.00     0.177 C 
HETATM    6  C   LIG     1      -0.905   3.108  -1.961  1.00  0.00     0.304 C 
HETATM    7  H   LIG     1       1.052   3.094  -2.584  1.00  0.00     0.316 HD
ENDROOT
BRANCH   3   8
HETATM    8  C   LIG     1       2.518   2.506  -0.424  1.00  0.00     0.202 C 
BRANCH   8   9
HETATM    9  O   LIG     1       2.958   1.789   0.727  1.00  0.00    -0.399 OA
HETATM   10  H   LIG     1       2.490   0.926   0.721  1.00  0.00     0.209 HD
ENDBRANCH   8   9
ENDBRANCH   3   8
BRANCH   2  11
HETATM   11  O   LIG     1       1.080  -0.030   0.024  1.00  0.00    -0.391 OA
HETATM   12  H   LIG     1       0.635  -0.879  -0.181  1.00  0.00     0.210 HD
ENDBRANCH   2  11
BRANCH   4  13
HETATM   13  O   LIG     1      -1.086  -0.655  -1.688  1.00  0.00    -0.390 OA
HETATM   14  H   LIG     1      -2.027  -0.657  -1.957  1.00  0.00     0.210 HD
ENDBRANCH   4  13
BRANCH   5  15
HETATM   15  O   LIG     1      -2.727   1.548  -2.467  1.00  0.00    -0.391 OA
HETATM   16  H   LIG     1      -3.024   2.193  -3.133  1.00  0.00     0.210 HD
ENDBRANCH   5  15
TORSDOF 5
