REMARK  6 active torsions:
REMARK  status: ('A' for Active; 'I' for Inactive)
REMARK    1  A    between atoms: O_2  and  C_8 
REMARK    2  A    between atoms: O_3  and  C_9 
REMARK    3  A    between atoms: O_4  and  C_10 
REMARK    4  A    between atoms: O_5  and  C_11 
REMARK    5  A    between atoms: C_7  and  C_8 
REMARK    6  A    between atoms: C_8  and  C_10 
ROOT
HETATM    1  O   LIG     1      -1.069   0.187   0.237  1.00  0.00    -0.301 OA
HETATM    2  O   LIG     1      -1.229  -2.079  -0.053  1.00  0.00    -0.257 OA
HETATM    3  C   LIG     1       0.000   1.168   0.221  1.00  0.00     0.222 A 
HETATM    4  C   LIG     1       1.209   0.320   0.071  1.00  0.00     0.114 A 
HETATM    5  C   LIG     1       0.902  -0.963  -0.068  1.00  0.00     0.173 A 
HETATM    6  C   LIG     1      -0.564  -1.070   0.025  1.00  0.00     0.320 A 
ENDROOT
BRANCH   3   7
HETATM    7  C   LIG     1      -0.332   2.160  -0.915  1.00  0.00     0.177 C 
BRANCH   7   8
HETATM    8  O   LIG     1      -1.640   2.718  -0.694  1.00  0.00    -0.390 OA
HETATM    9  H   LIG     1      -2.248   1.963  -0.565  1.00  0.00     0.210 HD
ENDBRANCH   7   8
BRANCH   7  10
HETATM   10  C   LIG     1       0.645   3.335  -1.029  1.00  0.00     0.198 C 
BRANCH  10  11
HETATM   11  O   LIG     1       1.985   2.913  -1.251  1.00  0.00    -0.398 OA
HETATM   12  H   LIG     1       2.443   3.664  -1.678  1.00  0.00     0.209 HD
ENDBRANCH  10  11
ENDBRANCH   7  10
ENDBRANCH   3   7
BRANCH   4  13
HETATM   13  O   LIG     1       2.496   0.790   0.150  1.00  0.00    -0.359 OA
HETATM   14  H   LIG     1       2.486   1.747  -0.082  1.00  0.00     0.217 HD
ENDBRANCH   4  13
BRANCH   5  15
HETATM   15  O   LIG     1       1.779  -1.997  -0.226  1.00  0.00    -0.353 OA
HETATM   16  H   LIG     1       2.666  -1.588  -0.233  1.00  0.00     0.218 HD
ENDBRANCH   5  15
TORSDOF 6
