REMARK  2 active torsions:
REMARK  status: ('A' for Active; 'I' for Inactive)
REMARK    1  A    between atoms: O_1  and  C_13 
REMARK    2  A    between atoms: O_2  and  C_15 
ROOT
HETATM    1  N   LIG     1       4.042   2.903   3.836  1.00  0.00     0.093 N 
HETATM    2  C   LIG     1       3.730   1.777   2.931  1.00  0.00     0.259 C 
HETATM    3  C   LIG     1       2.379   1.923   2.238  1.00  0.00    -0.005 A 
HETATM    4  C   LIG     1       4.851   1.648   1.882  1.00  0.00     0.080 C 
HETATM    5  C   LIG     1       1.381   2.748   2.805  1.00  0.00    -0.044 A 
HETATM    6  C   LIG     1       2.136   1.178   1.049  1.00  0.00     0.020 A 
HETATM    7  C   LIG     1       1.661   3.544   4.057  1.00  0.00     0.069 C 
HETATM    8  C   LIG     1       2.934   3.091   4.776  1.00  0.00     0.275 C 
HETATM    9  C   LIG     1       4.551   0.507   0.937  1.00  0.00    -0.045 A 
HETATM   10  C   LIG     1       3.211   0.272   0.549  1.00  0.00    -0.016 A 
HETATM   11  C   LIG     1       0.896   1.385   0.407  1.00  0.00     0.113 A 
HETATM   12  C   LIG     1       0.144   2.879   2.169  1.00  0.00     0.047 A 
HETATM   13  C   LIG     1      -0.092   2.202   0.979  1.00  0.00     0.100 A 
HETATM   14  C   LIG     1       5.599  -0.293   0.455  1.00  0.00     0.008 A 
HETATM   15  C   LIG     1       2.970  -0.849  -0.263  1.00  0.00     0.013 A 
HETATM   16  C   LIG     1       5.328  -1.372  -0.380  1.00  0.00     0.001 A 
HETATM   17  C   LIG     1       4.013  -1.657  -0.728  1.00  0.00     0.001 A 
HETATM   18  H   LIG     1       4.149   3.746   3.273  1.00  0.00     0.316 HD
ENDROOT
BRANCH  11  19
HETATM   19  O   LIG     1       0.608   0.766  -0.789  1.00  0.00    -0.352 OA
HETATM   20  C   LIG     1       0.883   1.652  -1.875  1.00  0.00     0.210 C 
ENDBRANCH  11  19
BRANCH  13  21
HETATM   21  O   LIG     1      -1.297   2.344   0.343  1.00  0.00    -0.358 OA
HETATM   22  H   LIG     1      -1.905   2.826   0.925  1.00  0.00     0.217 HD
ENDBRANCH  13  21
TORSDOF 2
