REMARK  5 active torsions:
REMARK  status: ('A' for Active; 'I' for Inactive)
REMARK    1  A    between atoms: O_1  and  C_10 
REMARK    2  A    between atoms: O_2  and  C_14 
REMARK    3  A    between atoms: N_3  and  C_9 
REMARK    4  A    between atoms: C_5  and  C_7 
REMARK    5  A    between atoms: C_7  and  C_9 
ROOT
HETATM    1  C   LIG     1      -0.354  -4.131  -0.018  1.00  0.00    -0.016 C 
HETATM    2  C   LIG     1      -1.053  -3.575   1.090  1.00  0.00    -0.043 C 
HETATM    3  C   LIG     1       1.016  -3.867  -0.200  1.00  0.00     0.022 C 
HETATM    4  C   LIG     1       1.726  -4.827  -1.076  1.00  0.00    -0.012 C 
HETATM    5  C   LIG     1       1.504  -2.647   0.450  1.00  0.00     0.113 C 
HETATM    6  C   LIG     1      -0.502  -2.493   1.786  1.00  0.00     0.047 C 
HETATM    7  C   LIG     1       1.000  -5.645  -1.980  1.00  0.00    -0.025 C 
HETATM    8  C   LIG     1      -0.992  -4.923  -0.980  1.00  0.00     0.014 C 
HETATM    9  C   LIG     1       0.719  -1.958   1.416  1.00  0.00     0.102 C 
HETATM   10  C   LIG     1      -0.365  -5.672  -1.950  1.00  0.00     0.013 C 
HETATM   11  C   LIG     1       3.111  -5.067  -1.040  1.00  0.00     0.013 C 
HETATM   12  C   LIG     1       1.622  -6.508  -2.900  1.00  0.00     0.012 C 
HETATM   13  C   LIG     1       3.727  -5.980  -1.936  1.00  0.00     0.001 C 
HETATM   14  C   LIG     1       2.998  -6.640  -2.898  1.00  0.00     0.001 C 
ENDROOT
BRANCH   2  15
HETATM   15  C   LIG     1      -2.378  -4.086   1.658  1.00  0.00     0.069 C 
BRANCH  15  16
HETATM   16  C   LIG     1      -2.990  -5.399   1.126  1.00  0.00     0.276 C 
BRANCH  16  17
HETATM   17  N   LIG     1      -4.238  -5.881   1.721  1.00  0.00     0.080 N 
HETATM   18  C   LIG     1      -4.069  -6.273   3.107  1.00  0.00     0.309 C 
HETATM   19  C   LIG     1      -5.310  -4.908   1.546  1.00  0.00     0.309 C 
ENDBRANCH  16  17
ENDBRANCH  15  16
ENDBRANCH   2  15
BRANCH   9  20
HETATM   20  O   LIG     1       1.108  -0.726   1.858  1.00  0.00    -0.353 OA
HETATM   21  C   LIG     1       0.848  -0.318   3.191  1.00  0.00     0.210 C 
ENDBRANCH   9  20
BRANCH   5  22
HETATM   22  O   LIG     1       2.723  -2.159  -0.008  1.00  0.00    -0.352 OA
HETATM   23  C   LIG     1       2.906  -0.737   0.037  1.00  0.00     0.210 C 
ENDBRANCH   5  22
TORSDOF 5
