REMARK  5 active torsions:
REMARK  status: ('A' for Active; 'I' for Inactive)
REMARK    1  A    between atoms: N_4  and  C_12 
REMARK    2  A    between atoms: N_5  and  C_7 
REMARK    3  A    between atoms: C_13  and  C_16 
REMARK    4  A    between atoms: C_14  and  C_18 
REMARK    5  A    between atoms: C_18  and  C_22 
ROOT
HETATM    1  C   LIG     1       3.229  -0.197   0.743  1.00  0.00     0.051 A 
HETATM    2  C   LIG     1       4.674  -0.138   0.629  1.00  0.00     0.002 A 
HETATM    3  C   LIG     1       2.616  -1.483   0.599  1.00  0.00    -0.007 A 
HETATM    4  C   LIG     1       5.388  -1.358   0.463  1.00  0.00     0.014 A 
HETATM    5  C   LIG     1       3.390  -2.652   0.463  1.00  0.00     0.014 A 
HETATM    6  C   LIG     1       4.766  -2.596   0.411  1.00  0.00     0.002 A 
ENDROOT
BRANCH   1   7
HETATM    7  N   LIG     1       2.483   0.994   0.968  1.00  0.00    -0.377 N 
HETATM    8  C   LIG     1       1.075   1.082   0.528  1.00  0.00     0.158 C 
HETATM    9  C   LIG     1       0.601   2.551   0.457  1.00  0.00     0.235 C 
HETATM   10  C   LIG     1       0.885   3.268   1.784  1.00  0.00     0.038 C 
HETATM   11  C   LIG     1       2.303   3.028   2.313  1.00  0.00     0.022 C 
HETATM   12  C   LIG     1       2.657   1.538   2.334  1.00  0.00     0.123 C 
BRANCH   9  13
HETATM   13  N   LIG     1       1.231   3.254  -0.670  1.00  0.00     0.084 N 
HETATM   14  H   LIG     1       0.905   2.829  -1.539  1.00  0.00     0.313 HD
HETATM   15  H   LIG     1       2.224   3.019  -0.637  1.00  0.00     0.313 HD
ENDBRANCH   9  13
ENDBRANCH   1   7
BRANCH   2  16
HETATM   16  C   LIG     1       5.505   1.117   0.563  1.00  0.00    -0.024 A 
HETATM   17  C   LIG     1       5.064   2.278  -0.088  1.00  0.00     0.012 A 
HETATM   18  C   LIG     1       5.863   3.425  -0.199  1.00  0.00     0.001 A 
HETATM   19  C   LIG     1       7.167   3.418   0.281  1.00  0.00     0.000 A 
HETATM   20  C   LIG     1       7.655   2.276   0.901  1.00  0.00     0.001 A 
HETATM   21  C   LIG     1       6.827   1.157   1.063  1.00  0.00     0.012 A 
ENDBRANCH   2  16
BRANCH   3  22
HETATM   22  C   LIG     1       1.184  -1.776   0.438  1.00  0.00     0.038 C 
BRANCH  22  23
HETATM   23  C   LIG     1       0.277  -2.044   1.382  1.00  0.00     0.079 A 
HETATM   24  S   LIG     1       0.441  -2.016   3.092  1.00  0.00    -0.024 SA
HETATM   25  C   LIG     1      -1.158  -2.696   3.316  1.00  0.00     0.291 A 
HETATM   26  O   LIG     1      -1.609  -3.052   4.400  1.00  0.00    -0.260 OA
HETATM   27  N   LIG     1      -1.792  -2.806   2.124  1.00  0.00    -0.283 N 
HETATM   28  C   LIG     1      -1.083  -2.503   1.002  1.00  0.00     0.266 A 
HETATM   29  H   LIG     1      -2.701  -3.232   2.058  1.00  0.00     0.172 HD
HETATM   30  O   LIG     1      -1.493  -2.638  -0.137  1.00  0.00    -0.267 OA
ENDBRANCH  22  23
ENDBRANCH   3  22
TORSDOF 5
