REMARK  10 active torsions:
REMARK  status: ('A' for Active; 'I' for Inactive)
REMARK    1  A    between atoms: C_7  and  C_18 
REMARK    2  A    between atoms: C_8  and  C_17 
REMARK    3  A    between atoms: C_21  and  C_24 
REMARK    4  A    between atoms: C_22  and  C_23 
REMARK    5  A    between atoms: C_27  and  C_30 
REMARK    6  A    between atoms: C_28  and  C_29 
REMARK    7  A    between atoms: C_31  and  C_34 
REMARK    8  A    between atoms: C_32  and  C_33 
REMARK    9  A    between atoms: C_37  and  C_39 
REMARK   10  A    between atoms: C_38  and  C_40 
ROOT
HETATM    1  C   LIG     1     -11.751  -3.715  -0.398  1.00  0.00     0.001 C 
HETATM    2  C   LIG     1     -10.741  -3.241  -1.088  1.00  0.00     0.001 C 
ENDROOT
BRANCH   1   3
HETATM    3  C   LIG     1     -11.888  -3.596   1.031  1.00  0.00     0.007 C 
HETATM    4  C   LIG     1     -11.085  -2.928   1.878  1.00  0.00    -0.062 C 
HETATM    5  C   LIG     1      -9.818  -2.179   1.514  1.00  0.00     0.048 C 
BRANCH   4   6
HETATM    6  C   LIG     1     -11.394  -2.943   3.291  1.00  0.00     0.007 C 
HETATM    7  C   LIG     1     -11.068  -1.929   4.099  1.00  0.00     0.001 C 
BRANCH   7   8
HETATM    8  C   LIG     1     -11.326  -1.973   5.500  1.00  0.00     0.007 C 
HETATM    9  C   LIG     1     -12.014  -1.028   6.152  1.00  0.00    -0.062 C 
HETATM   10  C   LIG     1     -12.673   0.184   5.560  1.00  0.00     0.048 C 
BRANCH   9  11
HETATM   11  C   LIG     1     -12.198  -1.189   7.567  1.00  0.00     0.007 C 
HETATM   12  C   LIG     1     -11.736  -0.302   8.454  1.00  0.00     0.009 C 
BRANCH  12  13
HETATM   13  C   LIG     1     -11.867  -0.457   9.888  1.00  0.00    -0.048 C 
HETATM   14  C   LIG     1     -11.151  -1.670  10.521  1.00  0.00    -0.020 C 
HETATM   15  C   LIG     1     -11.013  -1.473  12.052  1.00  0.00     0.014 C 
HETATM   16  C   LIG     1      -9.716  -1.855   9.967  1.00  0.00     0.020 C 
HETATM   17  C   LIG     1     -11.940  -2.973  10.254  1.00  0.00     0.020 C 
HETATM   18  C   LIG     1     -12.314  -0.999  12.683  1.00  0.00     0.005 C 
HETATM   19  C   LIG     1     -12.723   0.349  12.105  1.00  0.00     0.034 C 
HETATM   20  C   LIG     1     -12.551   0.465  10.608  1.00  0.00    -0.077 C 
HETATM   21  C   LIG     1     -13.213   1.705  10.046  1.00  0.00     0.044 C 
ENDBRANCH  12  13
ENDBRANCH   9  11
ENDBRANCH   7   8
ENDBRANCH   4   6
ENDBRANCH   1   3
BRANCH   2  22
HETATM   22  C   LIG     1     -10.570  -3.289  -2.494  1.00  0.00     0.007 C 
HETATM   23  C   LIG     1     -10.372  -4.405  -3.185  1.00  0.00    -0.062 C 
HETATM   24  C   LIG     1     -10.401  -5.788  -2.582  1.00  0.00     0.048 C 
BRANCH  23  25
HETATM   25  C   LIG     1     -10.089  -4.342  -4.604  1.00  0.00     0.007 C 
HETATM   26  C   LIG     1     -10.028  -3.190  -5.291  1.00  0.00     0.001 C 
BRANCH  26  27
HETATM   27  C   LIG     1      -9.790  -3.168  -6.699  1.00  0.00     0.007 C 
HETATM   28  C   LIG     1     -10.622  -2.612  -7.594  1.00  0.00    -0.062 C 
HETATM   29  C   LIG     1     -11.926  -1.926  -7.253  1.00  0.00     0.048 C 
BRANCH  28  30
HETATM   30  C   LIG     1     -10.247  -2.703  -8.994  1.00  0.00     0.007 C 
HETATM   31  C   LIG     1     -10.989  -2.248 -10.013  1.00  0.00     0.009 C 
BRANCH  31  32
HETATM   32  C   LIG     1     -10.684  -2.374 -11.430  1.00  0.00    -0.048 C 
HETATM   33  C   LIG     1     -10.709  -1.061 -12.254  1.00  0.00    -0.020 C 
HETATM   34  C   LIG     1     -10.110  -1.309 -13.661  1.00  0.00     0.014 C 
HETATM   35  C   LIG     1      -9.865   0.095 -11.655  1.00  0.00     0.020 C 
HETATM   36  C   LIG     1     -12.170  -0.566 -12.387  1.00  0.00     0.020 C 
HETATM   37  C   LIG     1     -10.688  -2.543 -14.325  1.00  0.00     0.005 C 
HETATM   38  C   LIG     1     -10.387  -3.779 -13.495  1.00  0.00     0.034 C 
HETATM   39  C   LIG     1     -10.535  -3.596 -12.004  1.00  0.00    -0.077 C 
HETATM   40  C   LIG     1     -10.542  -4.912 -11.258  1.00  0.00     0.044 C 
ENDBRANCH  31  32
ENDBRANCH  28  30
ENDBRANCH  26  27
ENDBRANCH  23  25
ENDBRANCH   2  22
TORSDOF 10
