REMARK  11 active torsions:
REMARK  status: ('A' for Active; 'I' for Inactive)
REMARK    1  A    between atoms: O_1  and  C_5 
REMARK    2  A    between atoms: C_6  and  C_18 
REMARK    3  A    between atoms: C_11  and  C_20 
REMARK    4  A    between atoms: C_22  and  C_24 
REMARK    5  A    between atoms: C_23  and  C_25 
REMARK    6  A    between atoms: C_27  and  C_30 
REMARK    7  A    between atoms: C_29  and  C_31 
REMARK    8  A    between atoms: C_32  and  C_34 
REMARK    9  A    between atoms: C_33  and  C_35 
REMARK   10  A    between atoms: C_37  and  C_40 
REMARK   11  A    between atoms: C_38  and  C_41 
ROOT
HETATM    1  C   LIG     1       0.984 -11.918  -1.872  1.00  0.00    -0.062 C 
HETATM    2  C   LIG     1       0.065 -12.475  -2.922  1.00  0.00     0.048 C 
HETATM    3  C   LIG     1       1.855 -12.608  -1.115  1.00  0.00     0.007 C 
ENDROOT
BRANCH   3   4
HETATM    4  C   LIG     1       2.074 -14.029  -1.149  1.00  0.00     0.001 C 
HETATM    5  C   LIG     1       2.974 -14.632  -0.361  1.00  0.00     0.001 C 
BRANCH   5   6
HETATM    6  C   LIG     1       3.230 -16.047  -0.399  1.00  0.00     0.007 C 
HETATM    7  C   LIG     1       2.380 -17.044  -0.087  1.00  0.00    -0.062 C 
HETATM    8  C   LIG     1       0.948 -16.869   0.353  1.00  0.00     0.048 C 
BRANCH   7   9
HETATM    9  C   LIG     1       2.805 -18.435  -0.191  1.00  0.00     0.007 C 
HETATM   10  C   LIG     1       4.053 -18.853   0.077  1.00  0.00     0.001 C 
BRANCH  10  11
HETATM   11  C   LIG     1       4.469 -20.227  -0.052  1.00  0.00     0.007 C 
HETATM   12  C   LIG     1       5.714 -20.709   0.133  1.00  0.00    -0.062 C 
HETATM   13  C   LIG     1       6.924 -19.873   0.469  1.00  0.00     0.048 C 
BRANCH  12  14
HETATM   14  C   LIG     1       5.906 -22.151   0.029  1.00  0.00     0.007 C 
HETATM   15  C   LIG     1       7.034 -22.832   0.285  1.00  0.00     0.009 C 
BRANCH  15  16
HETATM   16  C   LIG     1       7.084 -24.290   0.254  1.00  0.00    -0.048 C 
HETATM   17  C   LIG     1       7.978 -24.919  -0.831  1.00  0.00    -0.020 C 
HETATM   18  C   LIG     1       8.185 -26.434  -0.564  1.00  0.00     0.014 C 
HETATM   19  C   LIG     1       9.385 -24.280  -0.877  1.00  0.00     0.020 C 
HETATM   20  C   LIG     1       7.316 -24.729  -2.215  1.00  0.00     0.020 C 
HETATM   21  C   LIG     1       6.885 -27.135  -0.200  1.00  0.00     0.005 C 
HETATM   22  C   LIG     1       6.298 -26.534   1.072  1.00  0.00     0.034 C 
HETATM   23  C   LIG     1       6.357 -25.026   1.132  1.00  0.00    -0.077 C 
HETATM   24  C   LIG     1       5.528 -24.450   2.260  1.00  0.00     0.044 C 
ENDBRANCH  15  16
ENDBRANCH  12  14
ENDBRANCH  10  11
ENDBRANCH   7   9
ENDBRANCH   5   6
ENDBRANCH   3   4
BRANCH   1  25
HETATM   25  C   LIG     1       0.847 -10.486  -1.680  1.00  0.00     0.007 C 
HETATM   26  C   LIG     1       1.869  -9.626  -1.745  1.00  0.00     0.001 C 
BRANCH  26  27
HETATM   27  C   LIG     1       1.733  -8.210  -1.518  1.00  0.00     0.007 C 
HETATM   28  C   LIG     1       0.930  -7.362  -2.187  1.00  0.00    -0.062 C 
HETATM   29  C   LIG     1       0.027  -7.755  -3.330  1.00  0.00     0.048 C 
BRANCH  28  30
HETATM   30  C   LIG     1       0.838  -5.956  -1.825  1.00  0.00     0.007 C 
HETATM   31  C   LIG     1       1.854  -5.208  -1.368  1.00  0.00     0.009 C 
BRANCH  31  32
HETATM   32  C   LIG     1       1.715  -3.788  -1.077  1.00  0.00    -0.048 C 
HETATM   33  C   LIG     1       1.894  -3.369   0.397  1.00  0.00    -0.018 C 
HETATM   34  C   LIG     1       2.000  -1.824   0.533  1.00  0.00     0.045 C 
HETATM   35  C   LIG     1       3.194  -3.949   1.007  1.00  0.00     0.020 C 
HETATM   36  C   LIG     1       0.710  -3.905   1.237  1.00  0.00     0.020 C 
HETATM   37  C   LIG     1       1.025  -1.060  -0.354  1.00  0.00     0.123 C 
HETATM   38  C   LIG     1       1.220  -1.427  -1.820  1.00  0.00     0.066 C 
HETATM   39  C   LIG     1       1.433  -2.903  -2.067  1.00  0.00    -0.074 C 
HETATM   40  C   LIG     1       1.322  -3.263  -3.532  1.00  0.00     0.044 C 
BRANCH  37  41
HETATM   41  O   LIG     1      -0.323  -1.329   0.011  1.00  0.00    -0.395 OA
HETATM   42  H   LIG     1      -0.392  -1.225   0.974  1.00  0.00     0.210 HD
ENDBRANCH  37  41
ENDBRANCH  31  32
ENDBRANCH  28  30
ENDBRANCH  26  27
ENDBRANCH   1  25
TORSDOF 11
