REMARK  5 active torsions:
REMARK  status: ('A' for Active; 'I' for Inactive)
REMARK    1  A    between atoms: O_1  and  C_8 
REMARK    2  A    between atoms: O_2  and  C_9 
REMARK    3  A    between atoms: O_3  and  C_13 
REMARK    4  A    between atoms: C_5  and  C_11 
REMARK    5  A    between atoms: C_12  and  C_13 
ROOT
HETATM    1  C   LIG     1      -0.953  -0.318   2.705  1.00  0.00    -0.033 A 
HETATM    2  C   LIG     1      -0.236   0.286   1.663  1.00  0.00     0.050 A 
HETATM    3  C   LIG     1      -0.807  -1.701   2.915  1.00  0.00     0.014 A 
HETATM    4  C   LIG     1       0.628  -0.476   0.888  1.00  0.00     0.099 A 
HETATM    5  C   LIG     1       0.781  -1.839   1.115  1.00  0.00     0.098 A 
HETATM    6  C   LIG     1       0.062  -2.464   2.124  1.00  0.00     0.040 A 
ENDROOT
BRANCH   1   7
HETATM    7  C   LIG     1      -1.885   0.435   3.556  1.00  0.00     0.018 C 
HETATM    8  C   LIG     1      -1.722   1.728   3.881  1.00  0.00     0.082 C 
BRANCH   8   9
HETATM    9  C   LIG     1      -2.710   2.392   4.751  1.00  0.00     0.165 C 
HETATM   10  O   LIG     1      -3.811   1.942   5.022  1.00  0.00    -0.647 OA
BRANCH   9  11
HETATM   11  O   LIG     1      -2.249   3.564   5.231  1.00  0.00    -0.773 OA
HETATM   12  H   LIG     1      -1.330   3.779   4.991  1.00  0.00     0.167 HD
ENDBRANCH   9  11
ENDBRANCH   8   9
ENDBRANCH   1   7
BRANCH   4  13
HETATM   13  O   LIG     1       1.333   0.134  -0.111  1.00  0.00    -0.358 OA
HETATM   14  H   LIG     1       1.858  -0.586  -0.515  1.00  0.00     0.217 HD
ENDBRANCH   4  13
BRANCH   5  15
HETATM   15  O   LIG     1       1.651  -2.523   0.312  1.00  0.00    -0.358 OA
HETATM   16  H   LIG     1       1.645  -3.457   0.585  1.00  0.00     0.217 HD
ENDBRANCH   5  15
TORSDOF 5
