REMARK  11 active torsions:
REMARK  status: ('A' for Active; 'I' for Inactive)
REMARK    1  A    between atoms: O_1  and  C_11 
REMARK    2  A    between atoms: O_1  and  C_17 
REMARK    3  A    between atoms: O_2  and  C_10 
REMARK    4  A    between atoms: O_3  and  C_14 
REMARK    5  A    between atoms: O_4  and  C_15 
REMARK    6  A    between atoms: O_5  and  C_16 
REMARK    7  A    between atoms: O_8  and  C_23 
REMARK    8  A    between atoms: O_9  and  C_25 
REMARK    9  A    between atoms: C_10  and  C_16 
REMARK   10  A    between atoms: C_17  and  C_18 
REMARK   11  A    between atoms: C_19  and  C_20 
ROOT
HETATM    1  C   LIG     1      -2.115  -1.458  -2.280  1.00  0.00     0.147 C 
HETATM    2  C   LIG     1       0.172  -1.290  -1.145  1.00  0.00     0.166 C 
HETATM    3  C   LIG     1      -1.310  -0.895  -1.106  1.00  0.00     0.084 C 
HETATM    4  C   LIG     1      -1.933  -2.974  -2.405  1.00  0.00     0.083 C 
HETATM    5  C   LIG     1       0.353  -2.811  -1.317  1.00  0.00     0.176 C 
HETATM    6  C   LIG     1      -0.461  -3.362  -2.499  1.00  0.00     0.152 C 
ENDROOT
BRANCH   2   7
HETATM    7  O   LIG     1       0.780  -0.900   0.109  1.00  0.00    -0.310 OA
BRANCH   7   8
HETATM    8  C   LIG     1       1.138   0.406   0.206  1.00  0.00     0.283 C 
HETATM    9  O   LIG     1       1.000   1.261  -0.647  1.00  0.00    -0.260 OA
BRANCH   8  10
HETATM   10  C   LIG     1       1.694   0.626   1.555  1.00  0.00     0.083 C 
HETATM   11  C   LIG     1       2.078   1.851   1.947  1.00  0.00     0.017 C 
BRANCH  11  12
HETATM   12  C   LIG     1       2.654   2.126   3.273  1.00  0.00    -0.033 A 
HETATM   13  C   LIG     1       2.445   3.373   3.880  1.00  0.00     0.050 A 
HETATM   14  C   LIG     1       2.995   3.639   5.137  1.00  0.00     0.099 A 
HETATM   15  C   LIG     1       3.766   2.676   5.788  1.00  0.00     0.098 A 
HETATM   16  C   LIG     1       4.003   1.447   5.185  1.00  0.00     0.040 A 
HETATM   17  C   LIG     1       3.455   1.179   3.929  1.00  0.00     0.014 A 
BRANCH  14  18
HETATM   18  O   LIG     1       2.785   4.845   5.748  1.00  0.00    -0.358 OA
HETATM   19  H   LIG     1       2.226   5.399   5.183  1.00  0.00     0.217 HD
ENDBRANCH  14  18
BRANCH  15  20
HETATM   20  O   LIG     1       4.290   2.948   7.020  1.00  0.00    -0.358 OA
HETATM   21  H   LIG     1       4.781   2.173   7.332  1.00  0.00     0.217 HD
ENDBRANCH  15  20
ENDBRANCH  11  12
ENDBRANCH   8  10
ENDBRANCH   7   8
ENDBRANCH   2   7
BRANCH   5  22
HETATM   22  O   LIG     1       1.739  -3.110  -1.538  1.00  0.00    -0.390 OA
HETATM   23  H   LIG     1       1.874  -3.107  -2.507  1.00  0.00     0.210 HD
ENDBRANCH   5  22
BRANCH   1  24
HETATM   24  O   LIG     1      -1.652  -0.821  -3.484  1.00  0.00    -0.379 OA
HETATM   25  H   LIG     1      -2.047  -1.304  -4.240  1.00  0.00     0.211 HD
ENDBRANCH   1  24
BRANCH   1  26
HETATM   26  C   LIG     1      -3.599  -1.111  -2.068  1.00  0.00     0.176 C 
HETATM   27  O   LIG     1      -4.409  -1.821  -1.495  1.00  0.00    -0.648 OA
BRANCH  26  28
HETATM   28  O   LIG     1      -3.917   0.099  -2.592  1.00  0.00    -0.774 OA
HETATM   29  H   LIG     1      -3.126   0.517  -2.998  1.00  0.00     0.167 HD
ENDBRANCH  26  28
ENDBRANCH   1  26
BRANCH   6  30
HETATM   30  O   LIG     1       0.108  -2.898  -3.733  1.00  0.00    -0.393 OA
HETATM   31  H   LIG     1      -0.013  -1.930  -3.792  1.00  0.00     0.210 HD
ENDBRANCH   6  30
TORSDOF 11
