REMARK  6 active torsions:
REMARK  status: ('A' for Active; 'I' for Inactive)
REMARK    1  A    between atoms: O_1  and  C_9 
REMARK    2  A    between atoms: O_2  and  C_10 
REMARK    3  A    between atoms: O_3  and  C_11 
REMARK    4  A    between atoms: O_4  and  C_13 
REMARK    5  A    between atoms: O_5  and  C_14 
REMARK    6  A    between atoms: C_8  and  C_14 
ROOT
HETATM    1  N   LIG     1       1.614  -2.975   0.149  1.00  0.00     0.110 N 
HETATM    2  C   LIG     1       1.321  -2.128  -1.011  1.00  0.00     0.285 C 
HETATM    3  C   LIG     1       0.327  -3.211   0.795  1.00  0.00     0.278 C 
HETATM    4  C   LIG     1       0.441  -1.039  -0.420  1.00  0.00     0.185 C 
HETATM    5  C   LIG     1       2.733  -1.825  -1.466  1.00  0.00     0.184 C 
HETATM    6  C   LIG     1      -0.225  -1.752   0.798  1.00  0.00     0.184 C 
HETATM    7  C   LIG     1       2.467  -4.028  -0.367  1.00  0.00     0.308 C 
HETATM    8  C   LIG     1       3.408  -3.218  -1.301  1.00  0.00     0.177 C 
ENDROOT
BRANCH   3   9
HETATM    9  C   LIG     1      -0.640  -4.192   0.104  1.00  0.00     0.202 C 
BRANCH   9  10
HETATM   10  O   LIG     1      -1.825  -4.374   0.875  1.00  0.00    -0.399 OA
HETATM   11  H   LIG     1      -1.566  -4.691   1.757  1.00  0.00     0.209 HD
ENDBRANCH   9  10
ENDBRANCH   3   9
BRANCH   6  12
HETATM   12  O   LIG     1       0.207  -1.094   2.005  1.00  0.00    -0.391 OA
HETATM   13  H   LIG     1       1.166  -1.254   2.074  1.00  0.00     0.210 HD
ENDBRANCH   6  12
BRANCH   4  14
HETATM   14  O   LIG     1      -0.554  -0.635  -1.359  1.00  0.00    -0.391 OA
HETATM   15  H   LIG     1      -0.088  -0.233  -2.115  1.00  0.00     0.210 HD
ENDBRANCH   4  14
BRANCH   5  16
HETATM   16  O   LIG     1       2.772  -1.377  -2.814  1.00  0.00    -0.391 OA
HETATM   17  H   LIG     1       3.713  -1.356  -3.070  1.00  0.00     0.210 HD
ENDBRANCH   5  16
BRANCH   8  18
HETATM   18  O   LIG     1       4.709  -3.054  -0.734  1.00  0.00    -0.391 OA
HETATM   19  H   LIG     1       4.585  -2.754   0.185  1.00  0.00     0.210 HD
ENDBRANCH   8  18
TORSDOF 6
