REMARK  6 active torsions:
REMARK  status: ('A' for Active; 'I' for Inactive)
REMARK    1  A    between atoms: O_2  and  C_7 
REMARK    2  A    between atoms: O_3  and  C_13 
REMARK    3  A    between atoms: O_4  and  C_18 
REMARK    4  A    between atoms: O_5  and  C_19 
REMARK    5  A    between atoms: O_6  and  C_21 
REMARK    6  A    between atoms: C_8  and  C_12 
ROOT
HETATM    1  O   LIG     1      -1.392  -1.161  -0.306  1.00  0.00    -0.338 OA
HETATM    2  C   LIG     1      -2.484   1.045  -0.107  1.00  0.00     0.156 C 
HETATM    3  C   LIG     1      -2.488  -0.445   0.288  1.00  0.00     0.191 C 
HETATM    4  C   LIG     1      -1.180   1.677   0.378  1.00  0.00     0.079 C 
HETATM    5  C   LIG     1       0.004   0.789   0.134  1.00  0.00     0.011 A 
HETATM    6  C   LIG     1      -0.169  -0.564  -0.175  1.00  0.00     0.081 A 
HETATM    7  C   LIG     1       1.308   1.286   0.246  1.00  0.00     0.077 A 
HETATM    8  C   LIG     1       0.932  -1.391  -0.407  1.00  0.00     0.074 A 
HETATM    9  C   LIG     1       2.415   0.467   0.032  1.00  0.00     0.073 A 
HETATM   10  C   LIG     1       2.215  -0.868  -0.297  1.00  0.00     0.071 A 
ENDROOT
BRANCH   3  11
HETATM   11  C   LIG     1      -3.753  -1.175  -0.144  1.00  0.00    -0.024 A 
HETATM   12  C   LIG     1      -4.564  -1.804   0.815  1.00  0.00     0.049 A 
HETATM   13  C   LIG     1      -5.713  -2.492   0.425  1.00  0.00     0.099 A 
HETATM   14  C   LIG     1      -6.070  -2.558  -0.922  1.00  0.00     0.098 A 
HETATM   15  C   LIG     1      -5.276  -1.944  -1.886  1.00  0.00     0.040 A 
HETATM   16  C   LIG     1      -4.120  -1.261  -1.499  1.00  0.00     0.013 A 
BRANCH  13  17
HETATM   17  O   LIG     1      -6.499  -3.110   1.357  1.00  0.00    -0.358 OA
HETATM   18  H   LIG     1      -6.114  -2.968   2.235  1.00  0.00     0.217 HD
ENDBRANCH  13  17
BRANCH  14  19
HETATM   19  O   LIG     1      -7.201  -3.234  -1.284  1.00  0.00    -0.358 OA
HETATM   20  H   LIG     1      -7.310  -3.171  -2.245  1.00  0.00     0.217 HD
ENDBRANCH  14  19
ENDBRANCH   3  11
BRANCH   2  21
HETATM   21  O   LIG     1      -3.582   1.745   0.489  1.00  0.00    -0.392 OA
HETATM   22  H   LIG     1      -3.571   2.654   0.140  1.00  0.00     0.210 HD
ENDBRANCH   2  21
BRANCH   7  23
HETATM   23  O   LIG     1       1.481   2.603   0.572  1.00  0.00    -0.360 OA
HETATM   24  H   LIG     1       2.434   2.786   0.627  1.00  0.00     0.217 HD
ENDBRANCH   7  23
BRANCH  10  25
HETATM   25  O   LIG     1       3.319  -1.643  -0.501  1.00  0.00    -0.361 OA
HETATM   26  H   LIG     1       3.029  -2.547  -0.708  1.00  0.00     0.217 HD
ENDBRANCH  10  25
TORSDOF 6
