REMARK  3 active torsions:
REMARK  status: ('A' for Active; 'I' for Inactive)
REMARK    1  A    between atoms: O_1  and  C_11 
REMARK    2  A    between atoms: C_3  and  C_6 
REMARK    3  A    between atoms: C_10  and  C_11 
ROOT
HETATM    1  C   LIG     1      -3.646   0.084   0.051  1.00  0.00    -0.036 A 
HETATM    2  C   LIG     1      -4.292  -1.155  -0.072  1.00  0.00     0.011 A 
HETATM    3  C   LIG     1      -4.420   1.251   0.014  1.00  0.00     0.011 A 
HETATM    4  C   LIG     1      -5.682  -1.227  -0.197  1.00  0.00     0.001 A 
HETATM    5  C   LIG     1      -5.810   1.179  -0.112  1.00  0.00     0.001 A 
HETATM    6  C   LIG     1      -6.441  -0.059  -0.213  1.00  0.00     0.000 A 
ENDROOT
BRANCH   1   7
HETATM    7  C   LIG     1      -2.180   0.107   0.145  1.00  0.00     0.018 C 
HETATM    8  C   LIG     1      -1.467   1.033   0.806  1.00  0.00     0.082 C 
BRANCH   8   9
HETATM    9  C   LIG     1      -0.002   0.932   0.825  1.00  0.00     0.165 C 
HETATM   10  O   LIG     1       0.688   0.083   0.294  1.00  0.00    -0.647 OA
BRANCH   9  11
HETATM   11  O   LIG     1       0.529   1.939   1.535  1.00  0.00    -0.773 OA
HETATM   12  H   LIG     1       1.495   1.774   1.485  1.00  0.00     0.167 HD
ENDBRANCH   9  11
ENDBRANCH   8   9
ENDBRANCH   1   7
TORSDOF 3
