REMARK  5 active torsions:
REMARK  status: ('A' for Active; 'I' for Inactive)
REMARK    1  A    between atoms: O_1  and  C_15 
REMARK    2  A    between atoms: O_2  and  C_14 
REMARK    3  A    between atoms: O_3  and  C_20 
REMARK    4  A    between atoms: C_5  and  C_10 
REMARK    5  A    between atoms: C_10  and  C_13 
ROOT
HETATM    1  N   LIG     1      -3.396   4.353   1.531  1.00  0.00     0.093 N 
HETATM    2  C   LIG     1      -1.939   4.583   1.417  1.00  0.00     0.258 C 
HETATM    3  C   LIG     1      -1.228   3.352   0.866  1.00  0.00    -0.016 A 
HETATM    4  C   LIG     1      -1.780   2.066   1.021  1.00  0.00    -0.045 A 
HETATM    5  C   LIG     1      -3.151   1.886   1.625  1.00  0.00     0.069 C 
HETATM    6  C   LIG     1      -3.697   3.147   2.299  1.00  0.00     0.275 C 
HETATM    7  C   LIG     1      -0.008   3.487   0.187  1.00  0.00     0.049 A 
HETATM    8  C   LIG     1      -1.112   0.939   0.510  1.00  0.00     0.047 A 
HETATM    9  C   LIG     1       0.624   2.363  -0.337  1.00  0.00     0.099 A 
HETATM   10  C   LIG     1       0.091   1.081  -0.179  1.00  0.00     0.101 A 
HETATM   11  H   LIG     1      -3.825   5.167   1.969  1.00  0.00     0.316 HD
ENDROOT
BRANCH   2  12
HETATM   12  C   LIG     1      -1.256   5.065   2.731  1.00  0.00     0.079 C 
BRANCH  12  13
HETATM   13  C   LIG     1      -1.784   6.374   3.285  1.00  0.00    -0.056 A 
HETATM   14  C   LIG     1      -2.847   6.381   4.203  1.00  0.00     0.010 A 
HETATM   15  C   LIG     1      -3.331   7.586   4.717  1.00  0.00     0.037 A 
HETATM   16  C   LIG     1      -2.755   8.784   4.324  1.00  0.00     0.065 A 
HETATM   17  C   LIG     1      -1.698   8.803   3.418  1.00  0.00     0.037 A 
HETATM   18  C   LIG     1      -1.215   7.596   2.901  1.00  0.00     0.010 A 
BRANCH  16  19
HETATM   19  O   LIG     1      -3.252   9.936   4.859  1.00  0.00    -0.361 OA
HETATM   20  H   LIG     1      -2.730  10.683   4.527  1.00  0.00     0.217 HD
ENDBRANCH  16  19
ENDBRANCH  12  13
ENDBRANCH   2  12
BRANCH   9  21
HETATM   21  O   LIG     1       1.780   2.547  -1.047  1.00  0.00    -0.358 OA
HETATM   22  H   LIG     1       2.001   1.663  -1.397  1.00  0.00     0.217 HD
ENDBRANCH   9  21
BRANCH  10  23
HETATM   23  O   LIG     1       0.812   0.064  -0.752  1.00  0.00    -0.353 OA
HETATM   24  C   LIG     1       0.257  -1.242  -0.629  1.00  0.00     0.210 C 
ENDBRANCH  10  23
TORSDOF 5
