REMARK  11 active torsions:
REMARK  status: ('A' for Active; 'I' for Inactive)
REMARK    1  A    between atoms: O_1  and  C_11 
REMARK    2  A    between atoms: O_1  and  C_17 
REMARK    3  A    between atoms: O_2  and  C_10 
REMARK    4  A    between atoms: O_3  and  C_14 
REMARK    5  A    between atoms: O_4  and  C_15 
REMARK    6  A    between atoms: O_5  and  C_16 
REMARK    7  A    between atoms: O_8  and  C_23 
REMARK    8  A    between atoms: O_9  and  C_25 
REMARK    9  A    between atoms: C_10  and  C_16 
REMARK   10  A    between atoms: C_17  and  C_18 
REMARK   11  A    between atoms: C_19  and  C_20 
ROOT
HETATM    1  C   LIG     1       2.273  -1.592   3.624  1.00  0.00     0.147 C 
HETATM    2  C   LIG     1       1.305  -0.604   1.464  1.00  0.00     0.166 C 
HETATM    3  C   LIG     1       2.470  -1.358   2.125  1.00  0.00     0.084 C 
HETATM    4  C   LIG     1       0.900  -2.202   3.934  1.00  0.00     0.083 C 
HETATM    5  C   LIG     1      -0.074  -1.167   1.855  1.00  0.00     0.176 C 
HETATM    6  C   LIG     1      -0.221  -1.341   3.370  1.00  0.00     0.152 C 
ENDROOT
BRANCH   2   7
HETATM    7  O   LIG     1       1.410  -0.725   0.022  1.00  0.00    -0.310 OA
BRANCH   7   8
HETATM    8  C   LIG     1       2.313   0.094  -0.565  1.00  0.00     0.283 C 
HETATM    9  O   LIG     1       2.991   0.945   0.004  1.00  0.00    -0.260 OA
BRANCH   8  10
HETATM   10  C   LIG     1       2.390  -0.221  -2.000  1.00  0.00     0.083 C 
HETATM   11  C   LIG     1       3.347   0.364  -2.734  1.00  0.00     0.017 C 
BRANCH  11  12
HETATM   12  C   LIG     1       3.530   0.066  -4.151  1.00  0.00    -0.033 A 
HETATM   13  C   LIG     1       4.379  -0.973  -4.562  1.00  0.00     0.051 A 
HETATM   14  C   LIG     1       4.573  -1.242  -5.927  1.00  0.00     0.102 A 
HETATM   15  C   LIG     1       3.898  -0.451  -6.868  1.00  0.00     0.099 A 
HETATM   16  C   LIG     1       3.052   0.579  -6.461  1.00  0.00     0.040 A 
HETATM   17  C   LIG     1       2.866   0.837  -5.106  1.00  0.00     0.014 A 
BRANCH  14  18
HETATM   18  O   LIG     1       5.436  -2.279  -6.188  1.00  0.00    -0.353 OA
HETATM   19  C   LIG     1       5.661  -2.578  -7.564  1.00  0.00     0.210 C 
ENDBRANCH  14  18
BRANCH  15  20
HETATM   20  O   LIG     1       4.039  -0.654  -8.213  1.00  0.00    -0.358 OA
HETATM   21  H   LIG     1       3.543   0.019  -8.703  1.00  0.00     0.217 HD
ENDBRANCH  15  20
ENDBRANCH  11  12
ENDBRANCH   8  10
ENDBRANCH   7   8
ENDBRANCH   2   7
BRANCH   5  22
HETATM   22  O   LIG     1      -1.103  -0.256   1.429  1.00  0.00    -0.390 OA
HETATM   23  H   LIG     1      -1.063  -0.229   0.455  1.00  0.00     0.210 HD
ENDBRANCH   5  22
BRANCH   1  24
HETATM   24  O   LIG     1       2.437  -0.345   4.332  1.00  0.00    -0.379 OA
HETATM   25  H   LIG     1       1.536   0.037   4.458  1.00  0.00     0.211 HD
ENDBRANCH   1  24
BRANCH   1  26
HETATM   26  C   LIG     1       3.358  -2.546   4.148  1.00  0.00     0.176 C 
HETATM   27  O   LIG     1       3.545  -3.684   3.746  1.00  0.00    -0.648 OA
BRANCH  26  28
HETATM   28  O   LIG     1       4.087  -1.974   5.140  1.00  0.00    -0.774 OA
HETATM   29  H   LIG     1       3.748  -1.050   5.244  1.00  0.00     0.167 HD
ENDBRANCH  26  28
ENDBRANCH   1  26
BRANCH   6  30
HETATM   30  O   LIG     1      -0.174  -0.052   4.002  1.00  0.00    -0.393 OA
HETATM   31  H   LIG     1      -0.840   0.484   3.519  1.00  0.00     0.210 HD
ENDBRANCH   6  30
TORSDOF 11
