REMARK  30 active torsions:
REMARK  status: ('A' for Active; 'I' for Inactive)
REMARK    1  A    between atoms: O_1  and  C_10 
REMARK    2  A    between atoms: O_2  and  C_13 
REMARK    3  A    between atoms: C_5  and  C_6 
REMARK    4  A    between atoms: C_5  and  C_7 
REMARK    5  A    between atoms: C_6  and  C_8 
REMARK    6  A    between atoms: C_7  and  C_9 
REMARK    7  A    between atoms: C_8  and  C_10 
REMARK    8  A    between atoms: C_9  and  C_11 
REMARK    9  A    between atoms: C_10  and  C_13 
REMARK   10  A    between atoms: C_11  and  C_12 
REMARK   11  A    between atoms: C_12  and  C_14 
REMARK   12  A    between atoms: C_13  and  C_16 
REMARK   13  A    between atoms: C_14  and  C_15 
REMARK   14  A    between atoms: C_15  and  C_17 
REMARK   15  A    between atoms: C_16  and  C_23 
REMARK   16  A    between atoms: C_17  and  C_19 
REMARK   17  A    between atoms: C_18  and  C_20 
REMARK   18  A    between atoms: C_18  and  C_21 
REMARK   19  A    between atoms: C_19  and  C_27 
REMARK   20  A    between atoms: C_20  and  C_22 
REMARK   21  A    between atoms: C_21  and  C_24 
REMARK   22  A    between atoms: C_22  and  C_25 
REMARK   23  A    between atoms: C_23  and  C_30 
REMARK   24  A    between atoms: C_24  and  C_26 
REMARK   25  A    between atoms: C_25  and  C_28 
REMARK   26  A    between atoms: C_26  and  C_29 
REMARK   27  A    between atoms: C_27  and  C_32 
REMARK   28  A    between atoms: C_28  and  C_31 
REMARK   29  A    between atoms: C_29  and  C_33 
REMARK   30  A    between atoms: C_31  and  C_34 
ROOT
HETATM    1  C   LIG     1      -1.458   1.612   1.629  1.00  0.00     0.147 C 
ENDROOT
BRANCH   1   2
HETATM    2  O   LIG     1      -0.684   2.046   0.621  1.00  0.00    -0.393 OA
HETATM    3  H   LIG     1       0.141   1.507   0.549  1.00  0.00     0.210 HD
ENDBRANCH   1   2
BRANCH   1   4
HETATM    4  C   LIG     1      -2.781   2.231   1.290  1.00  0.00     0.034 C 
BRANCH   4   5
HETATM    5  C   LIG     1      -3.860   1.332   0.455  1.00  0.00     0.002 C 
BRANCH   5   6
HETATM    6  C   LIG     1      -3.894   0.765  -1.033  1.00  0.00     0.000 C 
BRANCH   6   7
HETATM    7  C   LIG     1      -3.114  -0.420  -1.737  1.00  0.00     0.000 C 
BRANCH   7   8
HETATM    8  C   LIG     1      -2.951  -1.828  -1.174  1.00  0.00     0.000 C 
BRANCH   8   9
HETATM    9  C   LIG     1      -2.583  -2.097   0.275  1.00  0.00     0.000 C 
BRANCH   9  10
HETATM   10  C   LIG     1      -1.111  -1.857   0.614  1.00  0.00     0.000 C 
BRANCH  10  11
HETATM   11  C   LIG     1      -0.452  -0.489   0.511  1.00  0.00     0.000 C 
BRANCH  11  12
HETATM   12  C   LIG     1      -0.584   0.609  -0.938  1.00  0.00     0.000 C 
BRANCH  12  13
HETATM   13  C   LIG     1      -0.419   2.373  -1.385  1.00  0.00     0.000 C 
BRANCH  13  14
HETATM   14  C   LIG     1       0.716   3.304  -0.752  1.00  0.00     0.005 C 
BRANCH  14  15
HETATM   15  C   LIG     1       0.312   4.749  -0.979  1.00  0.00     0.044 C 
BRANCH  15  16
HETATM   16  C   LIG     1       1.405   5.673  -0.715  1.00  0.00     0.016 C 
HETATM   17  C   LIG     1       2.122   6.297  -1.616  1.00  0.00     0.018 C 
HETATM   18  C   LIG     1       3.063   7.213  -0.957  1.00  0.00     0.151 C 
HETATM   19  O   LIG     1       2.835   7.036   0.442  1.00  0.00    -0.309 OA
HETATM   20  C   LIG     1       4.458   6.781  -1.333  1.00  0.00     0.044 C 
HETATM   21  C   LIG     1       1.755   6.177   0.658  1.00  0.00     0.289 C 
HETATM   22  O   LIG     1       1.240   5.935   1.635  1.00  0.00    -0.260 OA
ENDBRANCH  15  16
ENDBRANCH  14  15
ENDBRANCH  13  14
ENDBRANCH  12  13
ENDBRANCH  11  12
ENDBRANCH  10  11
ENDBRANCH   9  10
ENDBRANCH   8   9
ENDBRANCH   7   8
ENDBRANCH   6   7
ENDBRANCH   5   6
ENDBRANCH   4   5
ENDBRANCH   1   4
BRANCH   1  23
HETATM   23  C   LIG     1      -0.153   1.936   2.426  1.00  0.00     0.147 C 
BRANCH  23  24
HETATM   24  O   LIG     1       1.089   1.161   2.069  1.00  0.00    -0.393 OA
HETATM   25  H   LIG     1       1.574   1.423   1.257  1.00  0.00     0.210 HD
ENDBRANCH  23  24
BRANCH  23  26
HETATM   26  C   LIG     1      -0.341   1.757   3.852  1.00  0.00     0.038 C 
BRANCH  26  27
HETATM   27  C   LIG     1       0.919   2.283   4.541  1.00  0.00     0.029 C 
BRANCH  27  28
HETATM   28  C   LIG     1       0.629   2.319   5.994  1.00  0.00    -0.031 C 
HETATM   29  C   LIG     1       1.398   2.119   7.071  1.00  0.00    -0.031 C 
BRANCH  29  30
HETATM   30  C   LIG     1       2.849   1.779   7.228  1.00  0.00     0.027 C 
BRANCH  30  31
HETATM   31  C   LIG     1       3.691   3.027   7.471  1.00  0.00     0.004 C 
BRANCH  31  32
HETATM   32  C   LIG     1       3.854   3.843   6.183  1.00  0.00     0.000 C 
BRANCH  32  33
HETATM   33  C   LIG     1       4.703   5.081   6.387  1.00  0.00     0.000 C 
BRANCH  33  34
HETATM   34  C   LIG     1       6.147   4.717   6.657  1.00  0.00     0.000 C 
BRANCH  34  35
HETATM   35  C   LIG     1       6.936   5.987   6.870  1.00  0.00     0.000 C 
BRANCH  35  36
HETATM   36  C   LIG     1       8.409   5.736   7.182  1.00  0.00     0.000 C 
BRANCH  36  37
HETATM   37  C   LIG     1       8.800   4.992   8.477  1.00  0.00     0.000 C 
BRANCH  37  38
HETATM   38  C   LIG     1       8.335   3.537   8.686  1.00  0.00     0.000 C 
BRANCH  38  39
HETATM   39  C   LIG     1       8.783   2.556   7.600  1.00  0.00    -0.000 C 
BRANCH  39  40
HETATM   40  C   LIG     1      10.301   2.483   7.550  1.00  0.00    -0.005 C 
HETATM   41  C   LIG     1      10.786   1.395   6.615  1.00  0.00     0.005 C 
ENDBRANCH  39  40
ENDBRANCH  38  39
ENDBRANCH  37  38
ENDBRANCH  36  37
ENDBRANCH  35  36
ENDBRANCH  34  35
ENDBRANCH  33  34
ENDBRANCH  32  33
ENDBRANCH  31  32
ENDBRANCH  30  31
ENDBRANCH  29  30
ENDBRANCH  27  28
ENDBRANCH  26  27
ENDBRANCH  23  26
ENDBRANCH   1  23
TORSDOF 30
