REMARK  4 active torsions:
REMARK  status: ('A' for Active; 'I' for Inactive)
REMARK    1  A    between atoms: O_1  and  C_20 
REMARK    2  A    between atoms: O_2  and  C_19 
REMARK    3  A    between atoms: O_3  and  C_21 
REMARK    4  A    between atoms: O_4  and  C_22 
ROOT
HETATM    1  N   LIG     1      -1.654  -0.094  -3.963  1.00  0.00     0.102 N 
HETATM    2  C   LIG     1      -2.523   0.121  -2.783  1.00  0.00     0.261 C 
HETATM    3  C   LIG     1      -3.117  -1.231  -2.323  1.00  0.00     0.080 C 
HETATM    4  C   LIG     1      -1.199   1.181  -4.559  1.00  0.00     0.278 C 
HETATM    5  C   LIG     1      -1.819   0.986  -1.741  1.00  0.00    -0.016 A 
HETATM    6  C   LIG     1      -0.500  -0.950  -3.619  1.00  0.00     0.312 C 
HETATM    7  C   LIG     1      -1.340   2.457  -3.700  1.00  0.00     0.069 C 
HETATM    8  C   LIG     1      -1.226   2.169  -2.225  1.00  0.00    -0.045 A 
HETATM    9  C   LIG     1      -2.096  -2.334  -2.206  1.00  0.00    -0.045 A 
HETATM   10  C   LIG     1      -0.866  -2.212  -2.867  1.00  0.00    -0.021 A 
HETATM   11  C   LIG     1      -1.727   0.695  -0.376  1.00  0.00     0.049 A 
HETATM   12  C   LIG     1      -0.587   3.051  -1.350  1.00  0.00     0.047 A 
HETATM   13  C   LIG     1      -2.396  -3.508  -1.502  1.00  0.00     0.047 A 
HETATM   14  C   LIG     1       0.062  -3.260  -2.776  1.00  0.00     0.049 A 
HETATM   15  C   LIG     1      -1.062   1.571   0.492  1.00  0.00     0.099 A 
HETATM   16  C   LIG     1      -0.478   2.749   0.010  1.00  0.00     0.101 A 
HETATM   17  C   LIG     1      -0.234  -4.440  -2.084  1.00  0.00     0.101 A 
HETATM   18  C   LIG     1      -1.468  -4.552  -1.436  1.00  0.00     0.099 A 
ENDROOT
BRANCH  15  19
HETATM   19  O   LIG     1      -1.018   1.263   1.825  1.00  0.00    -0.358 OA
HETATM   20  H   LIG     1      -1.466   0.414   1.970  1.00  0.00     0.217 HD
ENDBRANCH  15  19
BRANCH  16  21
HETATM   21  O   LIG     1       0.185   3.703   0.735  1.00  0.00    -0.353 OA
HETATM   22  C   LIG     1       0.884   3.246   1.886  1.00  0.00     0.210 C 
ENDBRANCH  16  21
BRANCH  18  23
HETATM   23  O   LIG     1      -1.785  -5.666  -0.710  1.00  0.00    -0.358 OA
HETATM   24  H   LIG     1      -2.667  -5.551  -0.320  1.00  0.00     0.217 HD
ENDBRANCH  18  23
BRANCH  17  25
HETATM   25  O   LIG     1       0.781  -5.359  -2.106  1.00  0.00    -0.353 OA
HETATM   26  C   LIG     1       0.404  -6.724  -1.979  1.00  0.00     0.210 C 
ENDBRANCH  17  25
TORSDOF 4
