REMARK  2 active torsions:
REMARK  status: ('A' for Active; 'I' for Inactive)
REMARK    1  A    between atoms: O_3  and  C_9 
REMARK    2  A    between atoms: O_4  and  C_11 
ROOT
HETATM    1  O   LIG     1       2.079   1.418  -0.057  1.00  0.00    -0.311 OA
HETATM    2  O   LIG     1      -2.728   1.126  -0.052  1.00  0.00    -0.319 OA
HETATM    3  O   LIG     1       2.427  -2.625  -0.073  1.00  0.00    -0.287 OA
HETATM    4  C   LIG     1       0.942  -0.741   0.025  1.00  0.00     0.085 A 
HETATM    5  C   LIG     1      -1.495  -0.765   0.052  1.00  0.00     0.037 A 
HETATM    6  C   LIG     1       0.927   0.659  -0.029  1.00  0.00     0.128 A 
HETATM    7  C   LIG     1      -0.268  -1.475   0.077  1.00  0.00     0.098 A 
HETATM    8  C   LIG     1      -1.458   0.628  -0.015  1.00  0.00     0.124 A 
HETATM    9  C   LIG     1      -0.278   1.383  -0.031  1.00  0.00     0.138 A 
HETATM   10  C   LIG     1       2.266  -1.411  -0.004  1.00  0.00     0.190 A 
HETATM   11  C   LIG     1      -2.881  -1.100   0.103  1.00  0.00     0.042 A 
HETATM   12  C   LIG     1       3.305   0.787  -0.006  1.00  0.00     0.053 A 
HETATM   13  C   LIG     1       3.454  -0.542   0.019  1.00  0.00     0.088 A 
HETATM   14  C   LIG     1      -3.581   0.078   0.019  1.00  0.00     0.143 A 
HETATM   15  C   LIG     1       4.466   1.732   0.005  1.00  0.00     0.077 C 
ENDROOT
BRANCH   7  16
HETATM   16  O   LIG     1      -0.200  -2.836   0.298  1.00  0.00    -0.354 OA
HETATM   17  C   LIG     1      -1.026  -3.629  -0.545  1.00  0.00     0.210 C 
ENDBRANCH   7  16
BRANCH   9  18
HETATM   18  O   LIG     1      -0.190   2.762  -0.114  1.00  0.00    -0.351 OA
HETATM   19  C   LIG     1      -1.233   3.469   0.550  1.00  0.00     0.210 C 
ENDBRANCH   9  18
TORSDOF 2
