REMARK  3 active torsions:
REMARK  status: ('A' for Active; 'I' for Inactive)
REMARK    1  A    between atoms: O_3  and  C_15 
REMARK    2  A    between atoms: O_4  and  C_19 
REMARK    3  A    between atoms: C_6  and  C_9 
ROOT
HETATM    1  O   LIG     1       1.151  -1.276   0.250  1.00  0.00    -0.321 OA
HETATM    2  O   LIG     1       0.993   2.748  -0.397  1.00  0.00    -0.286 OA
HETATM    3  C   LIG     1      -0.166   0.728  -0.109  1.00  0.00     0.049 A 
HETATM    4  C   LIG     1       2.355   0.814  -0.055  1.00  0.00     0.048 A 
HETATM    5  C   LIG     1      -0.056  -0.642   0.112  1.00  0.00     0.091 A 
HETATM    6  C   LIG     1       1.061   1.540  -0.203  1.00  0.00     0.197 A 
HETATM    7  C   LIG     1       2.288  -0.509   0.164  1.00  0.00     0.159 A 
HETATM    8  C   LIG     1      -1.427   1.323  -0.241  1.00  0.00     0.021 A 
HETATM    9  C   LIG     1      -1.204  -1.429   0.202  1.00  0.00     0.074 A 
HETATM   10  C   LIG     1      -2.455  -0.832   0.071  1.00  0.00     0.068 A 
HETATM   11  C   LIG     1      -2.578   0.538  -0.150  1.00  0.00     0.037 A 
ENDROOT
BRANCH   4  12
HETATM   12  C   LIG     1       3.659   1.502  -0.107  1.00  0.00    -0.020 A 
HETATM   13  C   LIG     1       3.889   2.650   0.665  1.00  0.00     0.015 A 
HETATM   14  C   LIG     1       5.126   3.298   0.627  1.00  0.00     0.037 A 
HETATM   15  C   LIG     1       6.138   2.804  -0.185  1.00  0.00     0.065 A 
HETATM   16  C   LIG     1       5.934   1.672  -0.966  1.00  0.00     0.037 A 
HETATM   17  C   LIG     1       4.695   1.024  -0.927  1.00  0.00     0.015 A 
BRANCH  15  18
HETATM   18  O   LIG     1       7.329   3.467  -0.192  1.00  0.00    -0.361 OA
HETATM   19  H   LIG     1       7.924   3.033  -0.825  1.00  0.00     0.217 HD
ENDBRANCH  15  18
ENDBRANCH   4  12
BRANCH  10  20
HETATM   20  O   LIG     1      -3.552  -1.636   0.166  1.00  0.00    -0.361 OA
HETATM   21  H   LIG     1      -4.351  -1.094   0.058  1.00  0.00     0.217 HD
ENDBRANCH  10  20
TORSDOF 3
