REMARK  5 active torsions:
REMARK  status: ('A' for Active; 'I' for Inactive)
REMARK    1  A    between atoms: O_1  and  C_6 
REMARK    2  A    between atoms: O_2  and  C_8 
REMARK    3  A    between atoms: O_3  and  C_9 
REMARK    4  A    between atoms: O_4  and  C_11 
REMARK    5  A    between atoms: CA_7  and  C_11 
ROOT
HETATM    1  N   LIG     1       0.616   3.739  -0.398  1.00  0.00     0.095 N 
HETATM    2  C   LIG     1       0.666   1.291   0.119  1.00  0.00     0.184 C 
HETATM    3  CA  LIG     1       1.376   2.480  -0.571  1.00  0.00     0.275 C 
HETATM    4  C   LIG     1       0.425   1.601   1.604  1.00  0.00     0.179 C 
HETATM    5  C   LIG     1      -0.302   2.937   1.779  1.00  0.00     0.177 C 
HETATM    6  C   LIG     1       0.442   4.052   1.029  1.00  0.00     0.304 C 
HETATM    7  H   LIG     1      -0.310   3.620  -0.817  1.00  0.00     0.316 HD
ENDROOT
BRANCH   3   8
HETATM    8  C   LIG     1       1.599   2.182  -2.071  1.00  0.00     0.202 C 
BRANCH   8   9
HETATM    9  O   LIG     1       2.513   1.106  -2.269  1.00  0.00    -0.399 OA
HETATM   10  H   LIG     1       2.303   0.428  -1.591  1.00  0.00     0.209 HD
ENDBRANCH   8   9
ENDBRANCH   3   8
BRANCH   2  11
HETATM   11  O   LIG     1       1.452   0.093   0.013  1.00  0.00    -0.391 OA
HETATM   12  H   LIG     1       1.070  -0.522   0.674  1.00  0.00     0.210 HD
ENDBRANCH   2  11
BRANCH   4  13
HETATM   13  O   LIG     1      -0.358   0.535   2.166  1.00  0.00    -0.390 OA
HETATM   14  H   LIG     1      -1.286   0.752   1.937  1.00  0.00     0.210 HD
ENDBRANCH   4  13
BRANCH   5  15
HETATM   15  O   LIG     1      -1.638   2.793   1.261  1.00  0.00    -0.391 OA
HETATM   16  H   LIG     1      -2.087   3.649   1.389  1.00  0.00     0.210 HD
ENDBRANCH   5  15
TORSDOF 5
