REMARK  10 active torsions:
REMARK  status: ('A' for Active; 'I' for Inactive)
REMARK    1  A    between atoms: C_2  and  C_11 
REMARK    2  A    between atoms: C_13  and  C_20 
REMARK    3  A    between atoms: C_19  and  C_22 
REMARK    4  A    between atoms: C_23  and  C_25 
REMARK    5  A    between atoms: C_26  and  C_29 
REMARK    6  A    between atoms: C_28  and  C_30 
REMARK    7  A    between atoms: C_31  and  C_32 
REMARK    8  A    between atoms: C_33  and  C_34 
REMARK    9  A    between atoms: C_36  and  C_39 
REMARK   10  A    between atoms: C_37  and  C_40 
ROOT
HETATM    1  C   LIG     1      -3.958   5.022  -7.067  1.00  0.00     0.001 C 
HETATM    2  C   LIG     1      -4.961   4.923  -7.953  1.00  0.00     0.001 C 
ENDROOT
BRANCH   1   3
HETATM    3  C   LIG     1      -2.642   4.581  -7.331  1.00  0.00     0.007 C 
HETATM    4  C   LIG     1      -1.577   5.371  -7.085  1.00  0.00    -0.062 C 
HETATM    5  C   LIG     1      -1.654   6.792  -6.560  1.00  0.00     0.048 C 
BRANCH   4   6
HETATM    6  C   LIG     1      -0.306   4.803  -7.377  1.00  0.00     0.007 C 
HETATM    7  C   LIG     1       0.818   5.191  -6.751  1.00  0.00     0.001 C 
BRANCH   7   8
HETATM    8  C   LIG     1       2.039   4.544  -7.046  1.00  0.00     0.007 C 
HETATM    9  C   LIG     1       3.246   4.847  -6.536  1.00  0.00    -0.062 C 
HETATM   10  C   LIG     1       3.556   5.902  -5.509  1.00  0.00     0.048 C 
BRANCH   9  11
HETATM   11  C   LIG     1       4.379   4.065  -6.947  1.00  0.00     0.003 C 
HETATM   12  C   LIG     1       4.505   3.516  -8.170  1.00  0.00    -0.016 C 
BRANCH  12  13
HETATM   13  C   LIG     1       5.654   2.653  -8.607  1.00  0.00     0.044 C 
HETATM   14  C   LIG     1       5.393   1.135  -8.312  1.00  0.00    -0.037 C 
HETATM   15  C   LIG     1       5.658   0.845  -6.816  1.00  0.00     0.013 C 
HETATM   16  C   LIG     1       6.329   0.281  -9.194  1.00  0.00     0.016 C 
HETATM   17  C   LIG     1       3.943   0.709  -8.651  1.00  0.00     0.016 C 
HETATM   18  C   LIG     1       7.048   1.291  -6.347  1.00  0.00     0.028 C 
HETATM   19  C   LIG     1       7.547   2.564  -6.970  1.00  0.00    -0.024 C 
HETATM   20  C   LIG     1       6.942   3.187  -7.996  1.00  0.00    -0.079 C 
HETATM   21  C   LIG     1       7.439   4.498  -8.547  1.00  0.00     0.044 C 
ENDBRANCH  12  13
ENDBRANCH   9  11
ENDBRANCH   7   8
ENDBRANCH   4   6
ENDBRANCH   1   3
BRANCH   2  22
HETATM   22  C   LIG     1      -6.293   5.417  -7.748  1.00  0.00     0.007 C 
HETATM   23  C   LIG     1      -6.855   5.913  -6.623  1.00  0.00    -0.062 C 
HETATM   24  C   LIG     1      -6.252   6.027  -5.250  1.00  0.00     0.048 C 
BRANCH  23  25
HETATM   25  C   LIG     1      -8.188   6.450  -6.724  1.00  0.00     0.007 C 
HETATM   26  C   LIG     1      -8.457   7.741  -6.490  1.00  0.00     0.001 C 
BRANCH  26  27
HETATM   27  C   LIG     1      -9.781   8.241  -6.677  1.00  0.00     0.007 C 
HETATM   28  C   LIG     1     -10.105   9.236  -7.521  1.00  0.00    -0.062 C 
HETATM   29  C   LIG     1      -9.161   9.945  -8.449  1.00  0.00     0.048 C 
BRANCH  28  30
HETATM   30  C   LIG     1     -11.477   9.677  -7.600  1.00  0.00     0.007 C 
HETATM   31  C   LIG     1     -12.124  10.186  -6.541  1.00  0.00     0.009 C 
BRANCH  31  32
HETATM   32  C   LIG     1     -13.493  10.675  -6.569  1.00  0.00    -0.048 C 
HETATM   33  C   LIG     1     -13.678  12.152  -6.137  1.00  0.00    -0.020 C 
HETATM   34  C   LIG     1     -15.073  12.664  -6.576  1.00  0.00     0.014 C 
HETATM   35  C   LIG     1     -12.647  13.121  -6.766  1.00  0.00     0.020 C 
HETATM   36  C   LIG     1     -13.546  12.261  -4.599  1.00  0.00     0.020 C 
HETATM   37  C   LIG     1     -16.177  11.693  -6.200  1.00  0.00     0.005 C 
HETATM   38  C   LIG     1     -15.964  10.355  -6.888  1.00  0.00     0.034 C 
HETATM   39  C   LIG     1     -14.536   9.868  -6.896  1.00  0.00    -0.077 C 
HETATM   40  C   LIG     1     -14.434   8.405  -7.274  1.00  0.00     0.044 C 
ENDBRANCH  31  32
ENDBRANCH  28  30
ENDBRANCH  26  27
ENDBRANCH  23  25
ENDBRANCH   2  22
TORSDOF 10
