REMARK  27 active torsions:
REMARK  status: ('A' for Active; 'I' for Inactive)
REMARK    1  A    between atoms: O_3  and  C_15 
REMARK    2  A    between atoms: O_4  and  C_16 
REMARK    3  A    between atoms: C_7  and  C_8 
REMARK    4  A    between atoms: C_11  and  C_15 
REMARK    5  A    between atoms: C_12  and  C_16 
REMARK    6  A    between atoms: C_15  and  C_17 
REMARK    7  A    between atoms: C_16  and  C_18 
REMARK    8  A    between atoms: C_17  and  C_19 
REMARK    9  A    between atoms: C_18  and  C_20 
REMARK   10  A    between atoms: C_19  and  C_21 
REMARK   11  A    between atoms: C_20  and  C_22 
REMARK   12  A    between atoms: C_21  and  C_23 
REMARK   13  A    between atoms: C_22  and  C_24 
REMARK   14  A    between atoms: C_23  and  C_25 
REMARK   15  A    between atoms: C_24  and  C_26 
REMARK   16  A    between atoms: C_25  and  C_27 
REMARK   17  A    between atoms: C_26  and  C_28 
REMARK   18  A    between atoms: C_27  and  C_29 
REMARK   19  A    between atoms: C_28  and  C_30 
REMARK   20  A    between atoms: C_29  and  C_31 
REMARK   21  A    between atoms: C_30  and  C_33 
REMARK   22  A    between atoms: C_31  and  C_32 
REMARK   23  A    between atoms: C_32  and  C_34 
REMARK   24  A    between atoms: C_33  and  C_36 
REMARK   25  A    between atoms: C_34  and  C_35 
REMARK   26  A    between atoms: C_35  and  C_37 
REMARK   27  A    between atoms: C_37  and  C_39 
ROOT
HETATM    1  O   LIG     1      -0.602   0.230  -2.485  1.00  0.00    -0.375 OA
HETATM    2  C   LIG     1       0.634   0.297  -3.257  1.00  0.00     0.151 C 
HETATM    3  C   LIG     1       0.876   1.705  -3.671  1.00  0.00     0.037 C 
HETATM    4  C   LIG     1      -1.136   1.554  -2.382  1.00  0.00     0.150 C 
HETATM    5  C   LIG     1       0.082   2.372  -2.632  1.00  0.00     0.037 C 
ENDROOT
BRANCH   4   6
HETATM    6  C   LIG     1      -1.810   1.768  -1.015  1.00  0.00     0.147 C 
BRANCH   6   7
HETATM    7  O   LIG     1      -2.866   0.789  -0.862  1.00  0.00    -0.393 OA
HETATM    8  H   LIG     1      -3.036   0.390  -1.734  1.00  0.00     0.210 HD
ENDBRANCH   6   7
BRANCH   6   9
HETATM    9  C   LIG     1      -2.476   3.140  -0.763  1.00  0.00     0.034 C 
BRANCH   9  10
HETATM   10  C   LIG     1      -1.631   4.428  -0.682  1.00  0.00     0.002 C 
BRANCH  10  11
HETATM   11  C   LIG     1      -0.848   4.935  -1.902  1.00  0.00     0.000 C 
BRANCH  11  12
HETATM   12  C   LIG     1      -1.626   5.050  -3.269  1.00  0.00     0.000 C 
BRANCH  12  13
HETATM   13  C   LIG     1      -0.726   5.322  -4.516  1.00  0.00     0.000 C 
BRANCH  13  14
HETATM   14  C   LIG     1      -1.396   5.663  -5.873  1.00  0.00     0.000 C 
BRANCH  14  15
HETATM   15  C   LIG     1      -2.241   4.592  -6.583  1.00  0.00     0.000 C 
BRANCH  15  16
HETATM   16  C   LIG     1      -1.494   3.264  -6.800  1.00  0.00     0.000 C 
BRANCH  16  17
HETATM   17  C   LIG     1      -0.251   3.420  -7.663  1.00  0.00     0.000 C 
BRANCH  17  18
HETATM   18  C   LIG     1       0.474   2.133  -8.036  1.00  0.00     0.000 C 
BRANCH  18  19
HETATM   19  C   LIG     1       1.821   2.367  -8.763  1.00  0.00     0.005 C 
BRANCH  19  20
HETATM   20  C   LIG     1       1.809   3.068 -10.147  1.00  0.00     0.044 C 
BRANCH  20  21
HETATM   21  C   LIG     1       1.241   4.443 -10.177  1.00  0.00     0.016 C 
HETATM   22  C   LIG     1      -0.022   4.783 -10.426  1.00  0.00     0.018 C 
HETATM   23  C   LIG     1      -0.294   6.155  -9.958  1.00  0.00     0.151 C 
HETATM   24  O   LIG     1       1.000   6.708  -9.763  1.00  0.00    -0.309 OA
HETATM   25  C   LIG     1      -1.130   6.907 -10.965  1.00  0.00     0.044 C 
HETATM   26  C   LIG     1       1.953   5.709  -9.876  1.00  0.00     0.289 C 
HETATM   27  O   LIG     1       3.120   5.848  -9.788  1.00  0.00    -0.260 OA
ENDBRANCH  20  21
ENDBRANCH  19  20
ENDBRANCH  18  19
ENDBRANCH  17  18
ENDBRANCH  16  17
ENDBRANCH  15  16
ENDBRANCH  14  15
ENDBRANCH  13  14
ENDBRANCH  12  13
ENDBRANCH  11  12
ENDBRANCH  10  11
ENDBRANCH   9  10
ENDBRANCH   6   9
ENDBRANCH   4   6
BRANCH   2  28
HETATM   28  C   LIG     1       0.514  -0.574  -4.479  1.00  0.00     0.151 C 
HETATM   29  O   LIG     1      -0.661  -0.191  -5.257  1.00  0.00    -0.375 OA
HETATM   30  C   LIG     1      -1.643  -1.207  -5.007  1.00  0.00     0.150 C 
HETATM   31  C   LIG     1      -0.787  -2.442  -4.836  1.00  0.00     0.037 C 
HETATM   32  C   LIG     1       0.347  -1.991  -4.004  1.00  0.00     0.037 C 
BRANCH  30  33
HETATM   33  C   LIG     1      -2.712  -1.283  -6.105  1.00  0.00     0.147 C 
BRANCH  33  34
HETATM   34  O   LIG     1      -2.155  -1.417  -7.413  1.00  0.00    -0.393 OA
HETATM   35  H   LIG     1      -1.649  -0.609  -7.604  1.00  0.00     0.210 HD
ENDBRANCH  33  34
BRANCH  33  36
HETATM   36  C   LIG     1      -3.705  -2.431  -5.814  1.00  0.00     0.034 C 
BRANCH  36  37
HETATM   37  C   LIG     1      -3.166  -3.879  -5.817  1.00  0.00     0.002 C 
BRANCH  37  38
HETATM   38  C   LIG     1      -2.436  -4.247  -7.113  1.00  0.00     0.000 C 
BRANCH  38  39
HETATM   39  C   LIG     1      -3.372  -4.171  -8.320  1.00  0.00     0.000 C 
BRANCH  39  40
HETATM   40  C   LIG     1      -2.657  -4.508  -9.631  1.00  0.00     0.000 C 
BRANCH  40  41
HETATM   41  C   LIG     1      -3.624  -4.483 -10.824  1.00  0.00     0.000 C 
BRANCH  41  42
HETATM   42  C   LIG     1      -2.997  -4.784 -12.193  1.00  0.00     0.000 C 
BRANCH  42  43
HETATM   43  C   LIG     1      -1.865  -3.834 -12.587  1.00  0.00    -0.000 C 
BRANCH  43  44
HETATM   44  C   LIG     1      -1.243  -4.145 -13.953  1.00  0.00    -0.005 C 
HETATM   45  C   LIG     1      -0.624  -5.534 -14.025  1.00  0.00     0.005 C 
ENDBRANCH  43  44
ENDBRANCH  42  43
ENDBRANCH  41  42
ENDBRANCH  40  41
ENDBRANCH  39  40
ENDBRANCH  38  39
ENDBRANCH  37  38
ENDBRANCH  36  37
ENDBRANCH  33  36
ENDBRANCH  30  33
ENDBRANCH   2  28
TORSDOF 27
