REMARK  6 active torsions:
REMARK  status: ('A' for Active; 'I' for Inactive)
REMARK    1  A    between atoms: O_1  and  C_8 
REMARK    2  A    between atoms: O_2  and  C_9 
REMARK    3  A    between atoms: O_3  and  C_10 
REMARK    4  A    between atoms: O_4  and  C_11 
REMARK    5  A    between atoms: CA_6  and  C_10 
REMARK    6  A    between atoms: CA_7  and  C_11 
ROOT
HETATM    1  N   LIG     1       0.390  -3.657  -1.131  1.00  0.00     0.102 N 
HETATM    2  CA  LIG     1      -0.112  -2.500  -0.340  1.00  0.00     0.275 C 
HETATM    3  CA  LIG     1       1.391  -3.116  -2.085  1.00  0.00     0.275 C 
HETATM    4  C   LIG     1       0.500  -1.239  -0.953  1.00  0.00     0.184 C 
HETATM    5  C   LIG     1       1.818  -1.765  -1.511  1.00  0.00     0.184 C 
HETATM    6  H   LIG     1      -0.389  -4.082  -1.644  1.00  0.00     0.317 HD
ENDROOT
BRANCH   2   7
HETATM    7  C   LIG     1      -1.645  -2.425  -0.283  1.00  0.00     0.202 C 
BRANCH   7   8
HETATM    8  O   LIG     1      -2.196  -3.661   0.172  1.00  0.00    -0.399 OA
HETATM    9  H   LIG     1      -1.615  -3.999   0.875  1.00  0.00     0.209 HD
ENDBRANCH   7   8
ENDBRANCH   2   7
BRANCH   4  10
HETATM   10  O   LIG     1       0.712  -0.215   0.007  1.00  0.00    -0.391 OA
HETATM   11  H   LIG     1       1.373   0.394  -0.377  1.00  0.00     0.210 HD
ENDBRANCH   4  10
BRANCH   3  12
HETATM   12  C   LIG     1       2.574  -4.068  -2.273  1.00  0.00     0.202 C 
BRANCH  12  13
HETATM   13  O   LIG     1       2.110  -5.322  -2.771  1.00  0.00    -0.399 OA
HETATM   14  H   LIG     1       1.478  -5.644  -2.100  1.00  0.00     0.209 HD
ENDBRANCH  12  13
ENDBRANCH   3  12
BRANCH   5  15
HETATM   15  O   LIG     1       2.355  -0.866  -2.473  1.00  0.00    -0.391 OA
HETATM   16  H   LIG     1       1.750  -0.825  -3.237  1.00  0.00     0.210 HD
ENDBRANCH   5  15
TORSDOF 6
