REMARK WARNING: 32 MAX_TORS EXCEEDED!!!
REMARK  35 active torsions:
REMARK  status: ('A' for Active; 'I' for Inactive)
REMARK    1  A    between atoms: O_1  and  C_9 
REMARK    2  A    between atoms: O_2  and  C_11 
REMARK    3  A    between atoms: O_3  and  C_13 
REMARK    4  A    between atoms: O_4  and  C_14 
REMARK    5  A    between atoms: O_5  and  C_21 
REMARK    6  A    between atoms: O_6  and  C_32 
REMARK    7  A    between atoms: C_9  and  C_10 
REMARK    8  A    between atoms: C_9  and  C_12 
REMARK    9  A    between atoms: C_10  and  C_11 
REMARK   10  A    between atoms: C_11  and  C_14 
REMARK   11  A    between atoms: C_12  and  C_13 
REMARK   12  A    between atoms: C_13  and  C_15 
REMARK   13  A    between atoms: C_14  and  C_16 
REMARK   14  A    between atoms: C_15  and  C_17 
REMARK   15  A    between atoms: C_16  and  C_20 
REMARK   16  A    between atoms: C_17  and  C_18 
REMARK   17  A    between atoms: C_18  and  C_19 
REMARK   18  A    between atoms: C_19  and  C_21 
REMARK   19  A    between atoms: C_20  and  C_22 
REMARK   20  A    between atoms: C_21  and  C_23 
REMARK   21  A    between atoms: C_22  and  C_25 
REMARK   22  A    between atoms: C_23  and  C_24 
REMARK   23  A    between atoms: C_24  and  C_26 
REMARK   24  A    between atoms: C_25  and  C_27 
REMARK   25  A    between atoms: C_26  and  C_28 
REMARK   26  A    between atoms: C_27  and  C_29 
REMARK   27  A    between atoms: C_28  and  C_30 
REMARK   28  A    between atoms: C_29  and  C_31 
REMARK   29  A    between atoms: C_30  and  C_32 
REMARK   30  A    between atoms: C_31  and  C_33 
REMARK   31  A    between atoms: C_32  and  C_34 
REMARK   32  A    between atoms: C_33  and  C_35 
REMARK   33  A    between atoms: C_34  and  C_37 
REMARK   34  A    between atoms: C_35  and  C_36 
REMARK   35  A    between atoms: C_36  and  C_38 
ROOT
HETATM    1  C   LIG     1      -1.448   0.543  -2.684  1.00  0.00     0.120 C 
ENDROOT
BRANCH   1   2
HETATM    2  O   LIG     1      -0.677   0.653  -3.859  1.00  0.00    -0.395 OA
HETATM    3  H   LIG     1      -0.968  -0.118  -4.343  1.00  0.00     0.210 HD
ENDBRANCH   1   2
BRANCH   1   4
HETATM    4  C   LIG     1      -0.459   1.296  -1.808  1.00  0.00     0.063 C 
BRANCH   4   5
HETATM    5  C   LIG     1      -0.782   1.701  -0.378  1.00  0.00     0.123 C 
BRANCH   5   6
HETATM    6  O   LIG     1       0.460   2.193   0.128  1.00  0.00    -0.395 OA
HETATM    7  H   LIG     1       0.303   2.496   1.034  1.00  0.00     0.210 HD
ENDBRANCH   5   6
BRANCH   5   8
HETATM    8  C   LIG     1      -1.995   2.589   0.126  1.00  0.00     0.066 C 
BRANCH   8   9
HETATM    9  C   LIG     1      -2.187   4.147   0.108  1.00  0.00     0.149 C 
BRANCH   9  10
HETATM   10  O   LIG     1      -0.976   4.787   0.556  1.00  0.00    -0.393 OA
HETATM   11  H   LIG     1      -0.790   5.567   0.001  1.00  0.00     0.210 HD
ENDBRANCH   9  10
BRANCH   9  12
HETATM   12  C   LIG     1      -2.744   4.751  -1.167  1.00  0.00     0.147 C 
BRANCH  12  13
HETATM   13  O   LIG     1      -1.840   4.204  -2.021  1.00  0.00    -0.393 OA
HETATM   14  H   LIG     1      -2.078   4.664  -2.839  1.00  0.00     0.210 HD
ENDBRANCH  12  13
BRANCH  12  15
HETATM   15  C   LIG     1      -4.013   4.346  -1.895  1.00  0.00     0.034 C 
BRANCH  15  16
HETATM   16  C   LIG     1      -3.972   3.011  -2.609  1.00  0.00     0.002 C 
BRANCH  16  17
HETATM   17  C   LIG     1      -2.914   2.835  -3.700  1.00  0.00     0.000 C 
BRANCH  17  18
HETATM   18  C   LIG     1      -2.714   3.661  -4.943  1.00  0.00     0.000 C 
BRANCH  18  19
HETATM   19  C   LIG     1      -2.233   5.109  -4.852  1.00  0.00     0.000 C 
BRANCH  19  20
HETATM   20  C   LIG     1      -0.772   5.557  -4.394  1.00  0.00     0.000 C 
BRANCH  20  21
HETATM   21  C   LIG     1      -0.167   5.301  -2.986  1.00  0.00     0.000 C 
BRANCH  21  22
HETATM   22  C   LIG     1       0.948   5.820  -2.111  1.00  0.00     0.000 C 
BRANCH  22  23
HETATM   23  C   LIG     1       2.282   5.511  -2.714  1.00  0.00     0.000 C 
BRANCH  23  24
HETATM   24  C   LIG     1       2.282   6.191  -4.067  1.00  0.00    -0.000 C 
BRANCH  24  25
HETATM   25  C   LIG     1       3.480   6.124  -4.972  1.00  0.00    -0.005 C 
HETATM   26  C   LIG     1       3.082   6.797  -6.293  1.00  0.00     0.005 C 
ENDBRANCH  24  25
ENDBRANCH  23  24
ENDBRANCH  22  23
ENDBRANCH  21  22
ENDBRANCH  20  21
ENDBRANCH  19  20
ENDBRANCH  18  19
ENDBRANCH  17  18
ENDBRANCH  16  17
ENDBRANCH  15  16
ENDBRANCH  12  15
ENDBRANCH   9  12
ENDBRANCH   8   9
ENDBRANCH   5   8
ENDBRANCH   4   5
ENDBRANCH   1   4
BRANCH   1  27
HETATM   27  C   LIG     1      -2.236  -0.799  -2.661  1.00  0.00     0.032 C 
BRANCH  27  28
HETATM   28  C   LIG     1      -3.522  -1.159  -3.616  1.00  0.00     0.002 C 
BRANCH  28  29
HETATM   29  C   LIG     1      -3.542  -1.641  -5.129  1.00  0.00     0.002 C 
BRANCH  29  30
HETATM   30  C   LIG     1      -3.509  -0.670  -6.342  1.00  0.00     0.032 C 
BRANCH  30  31
HETATM   31  C   LIG     1      -2.232   0.096  -6.420  1.00  0.00     0.118 C 
BRANCH  31  32
HETATM   32  O   LIG     1      -2.415   0.790  -5.258  1.00  0.00    -0.396 OA
HETATM   33  H   LIG     1      -1.772   1.512  -5.233  1.00  0.00     0.210 HD
ENDBRANCH  31  32
BRANCH  31  34
HETATM   34  C   LIG     1      -0.941  -0.716  -6.311  1.00  0.00     0.032 C 
BRANCH  34  35
HETATM   35  C   LIG     1      -0.543  -1.353  -7.590  1.00  0.00     0.002 C 
BRANCH  35  36
HETATM   36  C   LIG     1      -0.534  -0.353  -8.728  1.00  0.00     0.000 C 
BRANCH  36  37
HETATM   37  C   LIG     1       0.482   0.762  -8.569  1.00  0.00     0.002 C 
BRANCH  37  38
HETATM   38  C   LIG     1       0.427   1.802  -7.458  1.00  0.00     0.032 C 
BRANCH  38  39
HETATM   39  C   LIG     1       1.562   2.822  -7.371  1.00  0.00     0.122 C 
BRANCH  39  40
HETATM   40  O   LIG     1       1.221   3.581  -6.205  1.00  0.00    -0.395 OA
HETATM   41  H   LIG     1       1.949   4.185  -5.998  1.00  0.00     0.210 HD
ENDBRANCH  39  40
BRANCH  39  42
HETATM   42  C   LIG     1       2.979   2.232  -7.162  1.00  0.00     0.076 C 
BRANCH  42  43
HETATM   43  C   LIG     1       3.560   1.412  -8.265  1.00  0.00     0.018 A 
HETATM   44  C   LIG     1       3.162   1.121  -9.499  1.00  0.00     0.018 A 
HETATM   45  C   LIG     1       4.055   0.200 -10.210  1.00  0.00     0.151 A 
HETATM   46  O   LIG     1       5.076  -0.046  -9.259  1.00  0.00    -0.309 OA
HETATM   47  C   LIG     1       3.433  -1.112 -10.698  1.00  0.00     0.044 C 
HETATM   48  C   LIG     1       4.870   0.706  -8.102  1.00  0.00     0.289 A 
HETATM   49  O   LIG     1       5.580   0.797  -7.203  1.00  0.00    -0.260 OA
ENDBRANCH  42  43
ENDBRANCH  39  42
ENDBRANCH  38  39
ENDBRANCH  37  38
ENDBRANCH  36  37
ENDBRANCH  35  36
ENDBRANCH  34  35
ENDBRANCH  31  34
ENDBRANCH  30  31
ENDBRANCH  29  30
ENDBRANCH  28  29
ENDBRANCH  27  28
ENDBRANCH   1  27
TORSDOF 35
