REMARK  3 active torsions:
REMARK  status: ('A' for Active; 'I' for Inactive)
REMARK    1  A    between atoms: O_1  and  C_13 
REMARK    2  A    between atoms: O_4  and  C_15 
REMARK    3  A    between atoms: O_5  and  C_18 
ROOT
HETATM    1  O   LIG     1      -0.164  -2.221  -1.155  1.00  0.00    -0.286 OA
HETATM    2  O   LIG     1      -2.244   0.912  -4.933  1.00  0.00    -0.287 OA
HETATM    3  C   LIG     1      -0.936   0.798  -2.991  1.00  0.00     0.032 A 
HETATM    4  C   LIG     1      -0.380   0.004  -1.988  1.00  0.00     0.062 A 
HETATM    5  C   LIG     1      -1.495  -2.050  -3.041  1.00  0.00     0.062 A 
HETATM    6  C   LIG     1      -2.033  -1.244  -4.041  1.00  0.00     0.035 A 
HETATM    7  C   LIG     1      -0.641  -1.459  -1.989  1.00  0.00     0.199 A 
HETATM    8  C   LIG     1      -1.774   0.206  -4.051  1.00  0.00     0.194 A 
HETATM    9  C   LIG     1      -0.700   2.182  -3.022  1.00  0.00     0.023 A 
HETATM   10  C   LIG     1       0.435   0.617  -1.027  1.00  0.00     0.081 A 
HETATM   11  C   LIG     1       0.098   2.792  -2.049  1.00  0.00    -0.058 A 
HETATM   12  C   LIG     1      -1.765  -3.428  -3.059  1.00  0.00     0.083 A 
HETATM   13  C   LIG     1      -2.824  -1.803  -5.053  1.00  0.00     0.053 A 
HETATM   14  C   LIG     1       0.669   1.997  -1.051  1.00  0.00     0.044 A 
HETATM   15  C   LIG     1      -3.074  -3.170  -5.055  1.00  0.00     0.069 A 
HETATM   16  C   LIG     1      -2.552  -3.991  -4.062  1.00  0.00     0.074 A 
HETATM   17  C   LIG     1       0.324   4.274  -2.097  1.00  0.00     0.048 C 
ENDROOT
BRANCH  10  18
HETATM   18  O   LIG     1       1.018  -0.109  -0.029  1.00  0.00    -0.360 OA
HETATM   19  H   LIG     1       1.934   0.196   0.084  1.00  0.00     0.217 HD
ENDBRANCH  10  18
BRANCH  12  20
HETATM   20  O   LIG     1      -1.283  -4.297  -2.115  1.00  0.00    -0.360 OA
HETATM   21  H   LIG     1      -0.740  -3.780  -1.475  1.00  0.00     0.217 HD
ENDBRANCH  12  20
BRANCH  15  22
HETATM   22  O   LIG     1      -3.843  -3.672  -6.061  1.00  0.00    -0.361 OA
HETATM   23  H   LIG     1      -3.936  -4.632  -5.940  1.00  0.00     0.217 HD
ENDBRANCH  15  22
TORSDOF 3
