REMARK  10 active torsions:
REMARK  status: ('A' for Active; 'I' for Inactive)
REMARK    1  A    between atoms: O_2  and  C_14 
REMARK    2  A    between atoms: C_3  and  C_5 
REMARK    3  A    between atoms: C_5  and  C_10 
REMARK    4  A    between atoms: C_10  and  C_15 
REMARK    5  A    between atoms: C_18  and  C_20 
REMARK    6  A    between atoms: C_20  and  C_22 
REMARK    7  A    between atoms: C_22  and  C_23 
REMARK    8  A    between atoms: C_24  and  C_25 
REMARK    9  A    between atoms: C_25  and  C_26 
REMARK   10  A    between atoms: C_26  and  C_28 
ROOT
HETATM    1  O   LIG     1      -1.373   3.609   1.241  1.00  0.00    -0.339 OA
HETATM    2  C   LIG     1      -0.852   3.044   0.034  1.00  0.00     0.065 C 
HETATM    3  C   LIG     1       0.414   2.259   0.350  1.00  0.00     0.043 C 
HETATM    4  C   LIG     1       1.468   3.175   0.936  1.00  0.00     0.045 C 
HETATM    5  C   LIG     1       0.891   4.240   1.840  1.00  0.00    -0.015 A 
HETATM    6  C   LIG     1      -0.503   4.383   1.959  1.00  0.00     0.083 A 
HETATM    7  C   LIG     1      -0.661   4.145  -1.033  1.00  0.00     0.046 C 
HETATM    8  C   LIG     1       1.727   5.135   2.533  1.00  0.00    -0.019 A 
HETATM    9  C   LIG     1      -1.096   5.338   2.803  1.00  0.00    -0.019 A 
HETATM   10  C   LIG     1      -0.264   6.241   3.488  1.00  0.00    -0.020 A 
HETATM   11  C   LIG     1       1.131   6.112   3.358  1.00  0.00     0.078 A 
HETATM   12  C   LIG     1       3.225   5.070   2.390  1.00  0.00     0.052 C 
HETATM   13  C   LIG     1      -2.602   5.432   2.878  1.00  0.00     0.052 C 
HETATM   14  C   LIG     1      -0.855   7.311   4.370  1.00  0.00     0.052 C 
ENDROOT
BRANCH   2  15
HETATM   15  C   LIG     1      -1.890   2.029  -0.428  1.00  0.00     0.042 C 
BRANCH  15  16
HETATM   16  C   LIG     1      -3.252   2.649  -0.573  1.00  0.00     0.030 C 
BRANCH  16  17
HETATM   17  C   LIG     1      -4.149   1.542  -1.023  1.00  0.00    -0.024 C 
HETATM   18  C   LIG     1      -5.131   0.894  -0.433  1.00  0.00    -0.087 C 
HETATM   19  C   LIG     1      -5.262   0.902   1.060  1.00  0.00     0.043 C 
BRANCH  18  20
HETATM   20  C   LIG     1      -6.119   0.034  -1.231  1.00  0.00     0.037 C 
BRANCH  20  21
HETATM   21  C   LIG     1      -6.607   0.592  -2.609  1.00  0.00     0.031 C 
BRANCH  21  22
HETATM   22  C   LIG     1      -5.555   0.772  -3.680  1.00  0.00    -0.024 C 
HETATM   23  C   LIG     1      -4.887   1.918  -3.947  1.00  0.00    -0.087 C 
HETATM   24  C   LIG     1      -5.091   3.230  -3.204  1.00  0.00     0.043 C 
BRANCH  23  25
HETATM   25  C   LIG     1      -3.657   1.892  -4.839  1.00  0.00     0.037 C 
BRANCH  25  26
HETATM   26  C   LIG     1      -3.775   2.979  -5.897  1.00  0.00     0.031 C 
BRANCH  26  27
HETATM   27  C   LIG     1      -2.611   2.975  -6.836  1.00  0.00    -0.024 C 
HETATM   28  C   LIG     1      -1.489   3.714  -6.735  1.00  0.00    -0.091 C 
HETATM   29  C   LIG     1      -0.404   3.600  -7.768  1.00  0.00     0.042 C 
HETATM   30  C   LIG     1      -1.191   4.679  -5.618  1.00  0.00     0.042 C 
ENDBRANCH  26  27
ENDBRANCH  25  26
ENDBRANCH  23  25
ENDBRANCH  21  22
ENDBRANCH  20  21
ENDBRANCH  18  20
ENDBRANCH  16  17
ENDBRANCH  15  16
ENDBRANCH   2  15
BRANCH  11  31
HETATM   31  O   LIG     1       1.900   6.996   4.072  1.00  0.00    -0.360 OA
HETATM   32  H   LIG     1       2.833   6.744   4.014  1.00  0.00     0.217 HD
ENDBRANCH  11  31
TORSDOF 10
