REMARK  5 active torsions:
REMARK  status: ('A' for Active; 'I' for Inactive)
REMARK    1  A    between atoms: O_2  and  C_11 
REMARK    2  A    between atoms: O_4  and  C_17 
REMARK    3  A    between atoms: O_5  and  C_19 
REMARK    4  A    between atoms: O_6  and  C_21 
REMARK    5  A    between atoms: C_7  and  C_10 
ROOT
HETATM    1  O   LIG     1       1.368  -1.218   0.055  1.00  0.00    -0.306 OA
HETATM    2  O   LIG     1       1.098   2.800  -0.501  1.00  0.00    -0.284 OA
HETATM    3  C   LIG     1       2.501  -0.430  -0.115  1.00  0.00     0.123 A 
HETATM    4  C   LIG     1      -0.038   0.752  -0.131  1.00  0.00     0.051 A 
HETATM    5  C   LIG     1       0.136  -0.617   0.050  1.00  0.00     0.093 A 
HETATM    6  C   LIG     1       2.467   0.902  -0.306  1.00  0.00     0.152 A 
HETATM    7  C   LIG     1       1.152   1.588  -0.326  1.00  0.00     0.220 A 
HETATM    8  C   LIG     1      -1.318   1.315  -0.131  1.00  0.00     0.021 A 
HETATM    9  C   LIG     1      -0.975  -1.437   0.235  1.00  0.00     0.074 A 
HETATM   10  C   LIG     1      -2.249  -0.875   0.235  1.00  0.00     0.068 A 
HETATM   11  C   LIG     1      -2.432   0.494   0.054  1.00  0.00     0.037 A 
ENDROOT
BRANCH   3  12
HETATM   12  C   LIG     1       3.755  -1.215  -0.091  1.00  0.00     0.004 A 
HETATM   13  C   LIG     1       3.835  -2.422  -0.805  1.00  0.00     0.053 A 
HETATM   14  C   LIG     1       5.002  -3.186  -0.771  1.00  0.00     0.099 A 
HETATM   15  C   LIG     1       6.099  -2.761  -0.023  1.00  0.00     0.098 A 
HETATM   16  C   LIG     1       6.035  -1.573   0.698  1.00  0.00     0.040 A 
HETATM   17  C   LIG     1       4.865  -0.807   0.666  1.00  0.00     0.017 A 
BRANCH  14  18
HETATM   18  O   LIG     1       5.082  -4.359  -1.469  1.00  0.00    -0.358 OA
HETATM   19  H   LIG     1       4.244  -4.510  -1.932  1.00  0.00     0.217 HD
ENDBRANCH  14  18
BRANCH  15  20
HETATM   20  O   LIG     1       7.234  -3.522  -0.003  1.00  0.00    -0.358 OA
HETATM   21  H   LIG     1       7.902  -3.078   0.542  1.00  0.00     0.217 HD
ENDBRANCH  15  20
ENDBRANCH   3  12
BRANCH   6  22
HETATM   22  O   LIG     1       3.585   1.692  -0.507  1.00  0.00    -0.355 OA
HETATM   23  H   LIG     1       3.233   2.598  -0.642  1.00  0.00     0.218 HD
ENDBRANCH   6  22
BRANCH  10  24
HETATM   24  O   LIG     1      -3.308  -1.713   0.418  1.00  0.00    -0.361 OA
HETATM   25  H   LIG     1      -4.130  -1.195   0.402  1.00  0.00     0.217 HD
ENDBRANCH  10  24
TORSDOF 5
