REMARK  5 active torsions:
REMARK  status: ('A' for Active; 'I' for Inactive)
REMARK    1  A    between atoms: O_1  and  C_7 
REMARK    2  A    between atoms: O_2  and  C_8 
REMARK    3  A    between atoms: O_3  and  C_9 
REMARK    4  A    between atoms: O_4  and  C_12 
REMARK    5  A    between atoms: C_6  and  C_12 
ROOT
HETATM    1  C   LIG     1      -0.805  -2.857  -2.319  1.00  0.00     0.043 A 
HETATM    2  C   LIG     1       0.339  -0.902  -0.729  1.00  0.00     0.132 A 
HETATM    3  C   LIG     1       0.776  -2.220  -0.621  1.00  0.00     0.102 A 
HETATM    4  C   LIG     1      -0.655  -0.562  -1.639  1.00  0.00     0.102 A 
HETATM    5  C   LIG     1       0.210  -3.212  -1.413  1.00  0.00     0.057 A 
HETATM    6  C   LIG     1      -1.230  -1.529  -2.449  1.00  0.00     0.057 A 
ENDROOT
BRANCH   1   7
HETATM    7  C   LIG     1      -1.425  -3.884  -3.178  1.00  0.00     0.176 C 
HETATM    8  O   LIG     1      -1.537  -3.774  -4.384  1.00  0.00    -0.646 OA
BRANCH   7   9
HETATM    9  O   LIG     1      -1.870  -4.940  -2.465  1.00  0.00    -0.773 OA
HETATM   10  H   LIG     1      -1.882  -4.801  -1.499  1.00  0.00     0.167 HD
ENDBRANCH   7   9
ENDBRANCH   1   7
BRANCH   3  11
HETATM   11  O   LIG     1       1.771  -2.486   0.277  1.00  0.00    -0.358 OA
HETATM   12  H   LIG     1       2.048  -3.414   0.179  1.00  0.00     0.217 HD
ENDBRANCH   3  11
BRANCH   4  13
HETATM   13  O   LIG     1      -1.073   0.732  -1.742  1.00  0.00    -0.358 OA
HETATM   14  H   LIG     1      -0.524   1.228  -1.100  1.00  0.00     0.217 HD
ENDBRANCH   4  13
BRANCH   2  15
HETATM   15  O   LIG     1       0.886   0.078   0.052  1.00  0.00    -0.356 OA
HETATM   16  H   LIG     1       1.561  -0.384   0.592  1.00  0.00     0.218 HD
ENDBRANCH   2  15
TORSDOF 5
