REMARK  7 active torsions:
REMARK  status: ('A' for Active; 'I' for Inactive)
REMARK    1  A    between atoms: O_2  and  C_8 
REMARK    2  A    between atoms: O_3  and  C_14 
REMARK    3  A    between atoms: O_4  and  C_19 
REMARK    4  A    between atoms: O_5  and  C_20 
REMARK    5  A    between atoms: O_6  and  C_21 
REMARK    6  A    between atoms: O_7  and  C_22 
REMARK    7  A    between atoms: C_9  and  C_12 
ROOT
HETATM    1  O   LIG     1      -1.415  -1.120  -0.133  1.00  0.00    -0.338 OA
HETATM    2  C   LIG     1      -2.383   1.133  -0.424  1.00  0.00     0.156 C 
HETATM    3  C   LIG     1      -2.501  -0.257   0.236  1.00  0.00     0.191 C 
HETATM    4  C   LIG     1      -1.084   1.788   0.049  1.00  0.00     0.079 C 
HETATM    5  C   LIG     1       0.061   0.817   0.044  1.00  0.00     0.011 A 
HETATM    6  C   LIG     1      -0.169  -0.560  -0.045  1.00  0.00     0.081 A 
HETATM    7  C   LIG     1       1.382   1.268   0.151  1.00  0.00     0.077 A 
HETATM    8  C   LIG     1       0.898  -1.460  -0.081  1.00  0.00     0.074 A 
HETATM    9  C   LIG     1       2.453   0.378   0.133  1.00  0.00     0.073 A 
HETATM   10  C   LIG     1       2.200  -0.982   0.009  1.00  0.00     0.071 A 
ENDROOT
BRANCH   3  11
HETATM   11  C   LIG     1      -3.774  -1.027  -0.086  1.00  0.00    -0.021 A 
HETATM   12  C   LIG     1      -4.362  -1.834   0.913  1.00  0.00     0.049 A 
HETATM   13  C   LIG     1      -5.509  -2.572   0.633  1.00  0.00     0.102 A 
HETATM   14  C   LIG     1      -6.076  -2.527  -0.633  1.00  0.00     0.132 A 
HETATM   15  C   LIG     1      -5.499  -1.753  -1.628  1.00  0.00     0.102 A 
HETATM   16  C   LIG     1      -4.353  -1.010  -1.369  1.00  0.00     0.049 A 
BRANCH  13  17
HETATM   17  O   LIG     1      -6.111  -3.363   1.572  1.00  0.00    -0.358 OA
HETATM   18  H   LIG     1      -5.589  -3.312   2.391  1.00  0.00     0.217 HD
ENDBRANCH  13  17
BRANCH  14  19
HETATM   19  O   LIG     1      -7.203  -3.251  -0.919  1.00  0.00    -0.356 OA
HETATM   20  H   LIG     1      -7.411  -3.707  -0.078  1.00  0.00     0.218 HD
ENDBRANCH  14  19
BRANCH  15  21
HETATM   21  O   LIG     1      -6.050  -1.722  -2.876  1.00  0.00    -0.358 OA
HETATM   22  H   LIG     1      -6.831  -2.308  -2.813  1.00  0.00     0.217 HD
ENDBRANCH  15  21
ENDBRANCH   3  11
BRANCH   2  23
HETATM   23  O   LIG     1      -3.481   1.993  -0.100  1.00  0.00    -0.392 OA
HETATM   24  H   LIG     1      -3.555   2.049   0.868  1.00  0.00     0.210 HD
ENDBRANCH   2  23
BRANCH   7  25
HETATM   25  O   LIG     1       1.607   2.611   0.273  1.00  0.00    -0.360 OA
HETATM   26  H   LIG     1       2.567   2.766   0.293  1.00  0.00     0.217 HD
ENDBRANCH   7  25
BRANCH  10  27
HETATM   27  O   LIG     1       3.271  -1.827  -0.015  1.00  0.00    -0.361 OA
HETATM   28  H   LIG     1       2.948  -2.735  -0.144  1.00  0.00     0.217 HD
ENDBRANCH  10  27
TORSDOF 7
