REMARK  10 active torsions:
REMARK  status: ('A' for Active; 'I' for Inactive)
REMARK    1  A    between atoms: O_2  and  C_15 
REMARK    2  A    between atoms: C_3  and  C_5 
REMARK    3  A    between atoms: C_5  and  C_10 
REMARK    4  A    between atoms: C_10  and  C_14 
REMARK    5  A    between atoms: C_17  and  C_19 
REMARK    6  A    between atoms: C_19  and  C_21 
REMARK    7  A    between atoms: C_21  and  C_22 
REMARK    8  A    between atoms: C_23  and  C_24 
REMARK    9  A    between atoms: C_24  and  C_25 
REMARK   10  A    between atoms: C_25  and  C_27 
ROOT
HETATM    1  C   LIG     1      -8.690   3.104  -2.413  1.00  0.00     0.042 C 
ENDROOT
BRANCH   1   2
HETATM    2  C   LIG     1      -9.251   4.527  -2.155  1.00  0.00     0.065 C 
HETATM    3  O   LIG     1      -8.808   4.892  -0.838  1.00  0.00    -0.339 OA
HETATM    4  C   LIG     1      -8.994   6.201  -0.475  1.00  0.00     0.082 A 
HETATM    5  C   LIG     1      -9.205   7.218  -1.414  1.00  0.00    -0.021 A 
HETATM    6  C   LIG     1      -8.984   6.467   0.908  1.00  0.00    -0.019 A 
HETATM    7  C   LIG     1      -9.207   6.938  -2.890  1.00  0.00     0.044 C 
HETATM    8  C   LIG     1      -9.475   8.511  -0.961  1.00  0.00     0.047 A 
HETATM    9  C   LIG     1      -8.715   5.530  -3.185  1.00  0.00     0.043 C 
HETATM   10  C   LIG     1      -9.544   8.769   0.407  1.00  0.00     0.072 A 
HETATM   11  C   LIG     1      -9.318   7.763   1.358  1.00  0.00    -0.020 A 
HETATM   12  C   LIG     1      -9.423   8.061   2.830  1.00  0.00     0.052 C 
HETATM   13  C   LIG     1      -8.704   5.339   1.872  1.00  0.00     0.052 C 
HETATM   14  C   LIG     1     -10.795   4.439  -2.170  1.00  0.00     0.046 C 
BRANCH  10  15
HETATM   15  O   LIG     1      -9.851  10.032   0.834  1.00  0.00    -0.360 OA
HETATM   16  H   LIG     1     -10.017  10.591   0.059  1.00  0.00     0.217 HD
ENDBRANCH  10  15
ENDBRANCH   1   2
BRANCH   1  17
HETATM   17  C   LIG     1      -7.158   3.021  -2.433  1.00  0.00     0.030 C 
BRANCH  17  18
HETATM   18  C   LIG     1      -6.666   1.608  -2.641  1.00  0.00    -0.024 C 
HETATM   19  C   LIG     1      -6.342   0.996  -3.789  1.00  0.00    -0.087 C 
HETATM   20  C   LIG     1      -6.506   1.555  -5.186  1.00  0.00     0.043 C 
BRANCH  19  21
HETATM   21  C   LIG     1      -5.781  -0.417  -3.763  1.00  0.00     0.037 C 
BRANCH  21  22
HETATM   22  C   LIG     1      -4.251  -0.420  -3.824  1.00  0.00     0.031 C 
BRANCH  22  23
HETATM   23  C   LIG     1      -3.703  -1.818  -3.785  1.00  0.00    -0.024 C 
HETATM   24  C   LIG     1      -3.342  -2.602  -4.820  1.00  0.00    -0.087 C 
HETATM   25  C   LIG     1      -3.521  -2.271  -6.275  1.00  0.00     0.043 C 
BRANCH  24  26
HETATM   26  C   LIG     1      -2.675  -3.939  -4.550  1.00  0.00     0.037 C 
BRANCH  26  27
HETATM   27  C   LIG     1      -1.140  -3.849  -4.578  1.00  0.00     0.031 C 
BRANCH  27  28
HETATM   28  C   LIG     1      -0.599  -2.902  -3.543  1.00  0.00    -0.024 C 
HETATM   29  C   LIG     1      -0.256  -3.190  -2.269  1.00  0.00    -0.091 C 
HETATM   30  C   LIG     1       0.224  -2.099  -1.351  1.00  0.00     0.042 C 
HETATM   31  C   LIG     1      -0.346  -4.552  -1.645  1.00  0.00     0.042 C 
ENDBRANCH  27  28
ENDBRANCH  26  27
ENDBRANCH  24  26
ENDBRANCH  22  23
ENDBRANCH  21  22
ENDBRANCH  19  21
ENDBRANCH  17  18
ENDBRANCH   1  17
TORSDOF 10
