REMARK  4 active torsions:
REMARK  status: ('A' for Active; 'I' for Inactive)
REMARK    1  A    between atoms: O_2  and  C_11 
REMARK    2  A    between atoms: O_4  and  C_15 
REMARK    3  A    between atoms: O_5  and  C_20 
REMARK    4  A    between atoms: C_7  and  C_10 
ROOT
HETATM    1  O   LIG     1       1.146   1.275  -0.154  1.00  0.00    -0.321 OA
HETATM    2  O   LIG     1       1.195  -2.782   0.296  1.00  0.00    -0.286 OA
HETATM    3  C   LIG     1      -0.113  -0.801   0.080  1.00  0.00     0.082 A 
HETATM    4  C   LIG     1       2.421  -0.777   0.028  1.00  0.00     0.048 A 
HETATM    5  C   LIG     1      -0.039   0.588  -0.064  1.00  0.00     0.094 A 
HETATM    6  C   LIG     1       1.159  -1.567   0.147  1.00  0.00     0.200 A 
HETATM    7  C   LIG     1      -1.378  -1.404   0.157  1.00  0.00     0.085 A 
HETATM    8  C   LIG     1       2.308   0.551  -0.118  1.00  0.00     0.159 A 
HETATM    9  C   LIG     1      -1.197   1.370  -0.127  1.00  0.00     0.074 A 
HETATM   10  C   LIG     1      -2.539  -0.627   0.094  1.00  0.00     0.074 A 
HETATM   11  C   LIG     1      -2.438   0.752  -0.047  1.00  0.00     0.071 A 
ENDROOT
BRANCH   4  12
HETATM   12  C   LIG     1       3.754  -1.410   0.030  1.00  0.00    -0.020 A 
HETATM   13  C   LIG     1       4.035  -2.478  -0.833  1.00  0.00     0.015 A 
HETATM   14  C   LIG     1       5.300  -3.070  -0.847  1.00  0.00     0.037 A 
HETATM   15  C   LIG     1       6.290  -2.600   0.006  1.00  0.00     0.065 A 
HETATM   16  C   LIG     1       6.036  -1.548   0.879  1.00  0.00     0.037 A 
HETATM   17  C   LIG     1       4.769  -0.956   0.890  1.00  0.00     0.015 A 
BRANCH  15  18
HETATM   18  O   LIG     1       7.510  -3.207  -0.040  1.00  0.00    -0.361 OA
HETATM   19  H   LIG     1       8.079  -2.812   0.640  1.00  0.00     0.217 HD
ENDBRANCH  15  18
ENDBRANCH   4  12
BRANCH   7  20
HETATM   20  O   LIG     1      -1.508  -2.756   0.291  1.00  0.00    -0.360 OA
HETATM   21  H   LIG     1      -2.445  -3.004   0.341  1.00  0.00     0.217 HD
ENDBRANCH   7  20
BRANCH  11  22
HETATM   22  O   LIG     1      -3.596   1.469  -0.105  1.00  0.00    -0.361 OA
HETATM   23  H   LIG     1      -3.384   2.412  -0.206  1.00  0.00     0.217 HD
ENDBRANCH  11  22
TORSDOF 4
