REMARK  4 active torsions:
REMARK  status: ('A' for Active; 'I' for Inactive)
REMARK    1  A    between atoms: O_1  and  C_6 
REMARK    2  A    between atoms: O_2  and  C_8 
REMARK    3  A    between atoms: O_3  and  C_11 
REMARK    4  A    between atoms: C_5  and  C_11 
ROOT
HETATM    1  C   LIG     1       0.653  -2.207  -0.439  1.00  0.00     0.073 A 
HETATM    2  C   LIG     1       0.437  -0.845  -0.698  1.00  0.00     0.082 A 
HETATM    3  C   LIG     1       0.122  -3.160  -1.324  1.00  0.00     0.057 A 
HETATM    4  C   LIG     1      -0.605  -2.744  -2.434  1.00  0.00     0.066 A 
HETATM    5  C   LIG     1      -0.294  -0.437  -1.816  1.00  0.00     0.040 A 
HETATM    6  C   LIG     1      -0.816  -1.394  -2.686  1.00  0.00     0.039 A 
ENDROOT
BRANCH   1   7
HETATM    7  C   LIG     1       1.421  -2.727   0.731  1.00  0.00     0.179 C 
HETATM    8  O   LIG     1       1.592  -3.921   0.920  1.00  0.00    -0.646 OA
BRANCH   7   9
HETATM    9  O   LIG     1       1.914  -1.787   1.564  1.00  0.00    -0.773 OA
HETATM   10  H   LIG     1       1.691  -0.875   1.272  1.00  0.00     0.167 HD
ENDBRANCH   7   9
ENDBRANCH   1   7
BRANCH   2  11
HETATM   11  O   LIG     1       0.946   0.107   0.151  1.00  0.00    -0.360 OA
HETATM   12  H   LIG     1       0.699   0.989  -0.189  1.00  0.00     0.217 HD
ENDBRANCH   2  11
BRANCH   4  13
HETATM   13  O   LIG     1      -1.134  -3.642  -3.313  1.00  0.00    -0.361 OA
HETATM   14  H   LIG     1      -0.913  -4.542  -3.019  1.00  0.00     0.217 HD
ENDBRANCH   4  13
TORSDOF 4
