REMARK  30 active torsions:
REMARK  status: ('A' for Active; 'I' for Inactive)
REMARK    1  A    between atoms: O_2  and  C_12 
REMARK    2  A    between atoms: O_3  and  C_29 
REMARK    3  A    between atoms: O_4  and  C_32 
REMARK    4  A    between atoms: O_5  and  C_33 
REMARK    5  A    between atoms: C_8  and  C_12 
REMARK    6  A    between atoms: C_9  and  C_13 
REMARK    7  A    between atoms: C_12  and  C_14 
REMARK    8  A    between atoms: C_13  and  C_15 
REMARK    9  A    between atoms: C_14  and  C_16 
REMARK   10  A    between atoms: C_15  and  C_17 
REMARK   11  A    between atoms: C_16  and  C_18 
REMARK   12  A    between atoms: C_17  and  C_19 
REMARK   13  A    between atoms: C_18  and  C_20 
REMARK   14  A    between atoms: C_19  and  C_21 
REMARK   15  A    between atoms: C_20  and  C_22 
REMARK   16  A    between atoms: C_21  and  C_23 
REMARK   17  A    between atoms: C_22  and  C_24 
REMARK   18  A    between atoms: C_23  and  C_25 
REMARK   19  A    between atoms: C_24  and  C_26 
REMARK   20  A    between atoms: C_25  and  C_27 
REMARK   21  A    between atoms: C_26  and  C_28 
REMARK   22  A    between atoms: C_27  and  C_30 
REMARK   23  A    between atoms: C_28  and  C_29 
REMARK   24  A    between atoms: C_29  and  C_32 
REMARK   25  A    between atoms: C_30  and  C_31 
REMARK   26  A    between atoms: C_31  and  C_33 
REMARK   27  A    between atoms: C_32  and  C_34 
REMARK   28  A    between atoms: C_33  and  C_35 
REMARK   29  A    between atoms: C_34  and  C_36 
REMARK   30  A    between atoms: C_35  and  C_37 
ROOT
HETATM    1  O   LIG     1      12.551  -2.630   1.024  1.00  0.00    -0.378 OA
HETATM    2  C   LIG     1      12.219  -4.010   0.773  1.00  0.00     0.150 C 
HETATM    3  C   LIG     1      13.913  -2.555   1.489  1.00  0.00     0.122 C 
HETATM    4  C   LIG     1      13.485  -4.829   1.015  1.00  0.00     0.037 C 
HETATM    5  C   LIG     1      14.588  -3.800   0.946  1.00  0.00     0.034 C 
ENDROOT
BRANCH   3   6
HETATM    6  C   LIG     1      13.879  -2.462   3.016  1.00  0.00     0.032 C 
BRANCH   6   7
HETATM    7  C   LIG     1      15.265  -2.343   3.653  1.00  0.00     0.002 C 
BRANCH   7   8
HETATM    8  C   LIG     1      15.212  -2.264   5.180  1.00  0.00     0.000 C 
BRANCH   8   9
HETATM    9  C   LIG     1      14.458  -1.034   5.675  1.00  0.00     0.000 C 
BRANCH   9  10
HETATM   10  C   LIG     1      14.440  -0.949   7.198  1.00  0.00     0.000 C 
BRANCH  10  11
HETATM   11  C   LIG     1      13.648   0.284   7.628  1.00  0.00     0.000 C 
BRANCH  11  12
HETATM   12  C   LIG     1      13.577   0.418   9.147  1.00  0.00     0.000 C 
BRANCH  12  13
HETATM   13  C   LIG     1      12.827   1.678   9.595  1.00  0.00     0.000 C 
BRANCH  13  14
HETATM   14  C   LIG     1      11.377   1.698   9.121  1.00  0.00     0.002 C 
BRANCH  14  15
HETATM   15  C   LIG     1      10.610   2.932   9.620  1.00  0.00     0.032 C 
BRANCH  15  16
HETATM   16  C   LIG     1       9.132   2.815   9.234  1.00  0.00     0.122 C 
BRANCH  16  17
HETATM   17  O   LIG     1       8.686   1.601   9.868  1.00  0.00    -0.395 OA
HETATM   18  H   LIG     1       8.065   1.167   9.207  1.00  0.00     0.210 HD
ENDBRANCH  16  17
BRANCH  16  19
HETATM   19  C   LIG     1       8.288   3.997   9.735  1.00  0.00     0.076 C 
BRANCH  19  20
HETATM   20  C   LIG     1       6.843   3.998   9.334  1.00  0.00     0.018 A 
HETATM   21  C   LIG     1       6.073   5.064   9.085  1.00  0.00     0.018 A 
HETATM   22  C   LIG     1       4.690   4.679   8.744  1.00  0.00     0.151 A 
HETATM   23  O   LIG     1       4.744   3.250   8.741  1.00  0.00    -0.309 OA
HETATM   24  C   LIG     1       3.651   5.127   9.763  1.00  0.00     0.044 C 
HETATM   25  C   LIG     1       5.983   2.837   9.138  1.00  0.00     0.289 A 
HETATM   26  O   LIG     1       6.266   1.636   9.275  1.00  0.00    -0.260 OA
ENDBRANCH  19  20
ENDBRANCH  16  19
ENDBRANCH  15  16
ENDBRANCH  14  15
ENDBRANCH  13  14
ENDBRANCH  12  13
ENDBRANCH  11  12
ENDBRANCH  10  11
ENDBRANCH   9  10
ENDBRANCH   8   9
ENDBRANCH   7   8
ENDBRANCH   6   7
ENDBRANCH   3   6
BRANCH   2  27
HETATM   27  C   LIG     1      11.612  -4.167  -0.639  1.00  0.00     0.147 C 
BRANCH  27  28
HETATM   28  O   LIG     1      11.241  -5.526  -0.868  1.00  0.00    -0.393 OA
HETATM   29  H   LIG     1      10.583  -5.763  -0.191  1.00  0.00     0.210 HD
ENDBRANCH  27  28
BRANCH  27  30
HETATM   30  C   LIG     1      12.577  -3.713  -1.738  1.00  0.00     0.034 C 
BRANCH  30  31
HETATM   31  C   LIG     1      11.995  -3.813  -3.149  1.00  0.00     0.002 C 
BRANCH  31  32
HETATM   32  C   LIG     1      13.003  -3.360  -4.209  1.00  0.00     0.000 C 
BRANCH  32  33
HETATM   33  C   LIG     1      13.397  -1.890  -4.063  1.00  0.00     0.000 C 
BRANCH  33  34
HETATM   34  C   LIG     1      14.403  -1.481  -5.130  1.00  0.00     0.000 C 
BRANCH  34  35
HETATM   35  C   LIG     1      14.759  -0.001  -4.994  1.00  0.00     0.000 C 
BRANCH  35  36
HETATM   36  C   LIG     1      15.786   0.461  -6.025  1.00  0.00     0.002 C 
BRANCH  36  37
HETATM   37  C   LIG     1      15.296   0.286  -7.468  1.00  0.00     0.034 C 
BRANCH  37  38
HETATM   38  C   LIG     1      16.276   0.809  -8.522  1.00  0.00     0.147 C 
BRANCH  38  39
HETATM   39  O   LIG     1      17.529   0.094  -8.408  1.00  0.00    -0.393 OA
HETATM   40  H   LIG     1      17.715  -0.262  -9.291  1.00  0.00     0.210 HD
ENDBRANCH  38  39
BRANCH  38  41
HETATM   41  C   LIG     1      16.578   2.316  -8.418  1.00  0.00     0.147 C 
BRANCH  41  42
HETATM   42  O   LIG     1      17.511   2.664  -9.449  1.00  0.00    -0.393 OA
HETATM   43  H   LIG     1      18.295   2.122  -9.257  1.00  0.00     0.210 HD
ENDBRANCH  41  42
BRANCH  41  44
HETATM   44  C   LIG     1      15.346   3.223  -8.530  1.00  0.00     0.034 C 
BRANCH  44  45
HETATM   45  C   LIG     1      14.618   3.098  -9.873  1.00  0.00    -0.002 C 
HETATM   46  C   LIG     1      13.382   3.981  -9.928  1.00  0.00     0.005 C 
ENDBRANCH  44  45
ENDBRANCH  41  44
ENDBRANCH  38  41
ENDBRANCH  37  38
ENDBRANCH  36  37
ENDBRANCH  35  36
ENDBRANCH  34  35
ENDBRANCH  33  34
ENDBRANCH  32  33
ENDBRANCH  31  32
ENDBRANCH  30  31
ENDBRANCH  27  30
ENDBRANCH   2  27
TORSDOF 30
