REMARK  4 active torsions:
REMARK  status: ('A' for Active; 'I' for Inactive)
REMARK    1  A    between atoms: O_2  and  C_13 
REMARK    2  A    between atoms: O_4  and  C_15 
REMARK    3  A    between atoms: O_5  and  C_20 
REMARK    4  A    between atoms: C_7  and  C_10 
ROOT
HETATM    1  O   LIG     1       1.529  -1.448   0.085  1.00  0.00    -0.321 OA
HETATM    2  O   LIG     1       1.068   2.599   0.020  1.00  0.00    -0.286 OA
HETATM    3  C   LIG     1       0.071   0.482   0.072  1.00  0.00     0.052 A 
HETATM    4  C   LIG     1       2.593   0.745   0.010  1.00  0.00     0.048 A 
HETATM    5  C   LIG     1       0.279  -0.890   0.111  1.00  0.00     0.092 A 
HETATM    6  C   LIG     1       1.238   1.383   0.029  1.00  0.00     0.198 A 
HETATM    7  C   LIG     1      -1.233   0.989   0.079  1.00  0.00     0.058 A 
HETATM    8  C   LIG     1      -0.806  -1.765   0.171  1.00  0.00     0.077 A 
HETATM    9  C   LIG     1      -2.332   0.125   0.152  1.00  0.00     0.102 A 
HETATM   10  C   LIG     1       2.607  -0.600   0.026  1.00  0.00     0.159 A 
HETATM   11  C   LIG     1      -2.109  -1.258   0.189  1.00  0.00     0.101 A 
ENDROOT
BRANCH   4  12
HETATM   12  C   LIG     1       3.862   1.519  -0.038  1.00  0.00    -0.020 A 
HETATM   13  C   LIG     1       5.034   1.040   0.579  1.00  0.00     0.015 A 
HETATM   14  C   LIG     1       6.230   1.765   0.533  1.00  0.00     0.037 A 
HETATM   15  C   LIG     1       6.267   2.991  -0.114  1.00  0.00     0.065 A 
HETATM   16  C   LIG     1       5.128   3.500  -0.722  1.00  0.00     0.037 A 
HETATM   17  C   LIG     1       3.937   2.763  -0.688  1.00  0.00     0.015 A 
BRANCH  15  18
HETATM   18  O   LIG     1       7.448   3.669  -0.127  1.00  0.00    -0.361 OA
HETATM   19  H   LIG     1       7.317   4.509  -0.597  1.00  0.00     0.217 HD
ENDBRANCH  15  18
ENDBRANCH   4  12
BRANCH   9  20
HETATM   20  O   LIG     1      -3.541   0.765   0.126  1.00  0.00    -0.353 OA
HETATM   21  C   LIG     1      -4.615   0.127   0.807  1.00  0.00     0.210 C 
ENDBRANCH   9  20
BRANCH  11  22
HETATM   22  O   LIG     1      -3.152  -2.141   0.214  1.00  0.00    -0.358 OA
HETATM   23  H   LIG     1      -2.813  -3.048   0.144  1.00  0.00     0.217 HD
ENDBRANCH  11  22
TORSDOF 4
