REMARK  11 active torsions:
REMARK  status: ('A' for Active; 'I' for Inactive)
REMARK    1  A    between atoms: O_2  and  C_12 
REMARK    2  A    between atoms: O_3  and  C_13 
REMARK    3  A    between atoms: O_4  and  C_15 
REMARK    4  A    between atoms: O_5  and  C_18 
REMARK    5  A    between atoms: O_6  and  C_19 
REMARK    6  A    between atoms: O_7  and  C_20 
REMARK    7  A    between atoms: O_10  and  C_30 
REMARK    8  A    between atoms: O_11  and  C_32 
REMARK    9  A    between atoms: C_14  and  C_17 
REMARK   10  A    between atoms: C_16  and  C_18 
REMARK   11  A    between atoms: C_25  and  C_27 
ROOT
HETATM    1  O   LIG     1       1.804   0.865   6.775  1.00  0.00    -0.309 OA
HETATM    2  O   LIG     1       2.531   3.870   4.158  1.00  0.00    -0.287 OA
HETATM    3  C   LIG     1       1.822  -0.064   2.673  1.00  0.00     0.041 A 
HETATM    4  C   LIG     1       2.092   1.253   3.098  1.00  0.00     0.094 A 
HETATM    5  C   LIG     1       1.536  -1.006   3.680  1.00  0.00     0.080 A 
HETATM    6  C   LIG     1       2.078   1.588   4.467  1.00  0.00     0.082 A 
HETATM    7  C   LIG     1       1.566  -0.684   5.035  1.00  0.00     0.075 A 
HETATM    8  C   LIG     1       1.831   0.617   5.427  1.00  0.00     0.095 A 
HETATM    9  C   LIG     1       2.285   2.964   4.939  1.00  0.00     0.190 A 
HETATM   10  C   LIG     1       1.927   2.179   7.219  1.00  0.00     0.090 A 
HETATM   11  C   LIG     1       2.156   3.207   6.390  1.00  0.00     0.094 A 
ENDROOT
BRANCH   3  12
HETATM   12  C   LIG     1       1.829  -0.428   1.191  1.00  0.00     0.192 C 
HETATM   13  O   LIG     1       0.599  -1.141   0.972  1.00  0.00    -0.368 OA
HETATM   14  C   LIG     1       0.460  -1.663  -0.357  1.00  0.00     0.177 C 
HETATM   15  C   LIG     1       1.575  -2.680  -0.697  1.00  0.00     0.180 C 
HETATM   16  C   LIG     1       2.676  -2.712   0.378  1.00  0.00     0.181 C 
HETATM   17  C   LIG     1       3.069  -1.279   0.788  1.00  0.00     0.183 C 
BRANCH  14  18
HETATM   18  C   LIG     1      -0.928  -2.316  -0.390  1.00  0.00     0.198 C 
BRANCH  18  19
HETATM   19  O   LIG     1      -1.023  -3.341   0.598  1.00  0.00    -0.398 OA
HETATM   20  H   LIG     1      -0.796  -2.914   1.447  1.00  0.00     0.209 HD
ENDBRANCH  18  19
ENDBRANCH  14  18
BRANCH  15  21
HETATM   21  O   LIG     1       2.186  -2.288  -1.941  1.00  0.00    -0.390 OA
HETATM   22  H   LIG     1       1.738  -2.794  -2.645  1.00  0.00     0.210 HD
ENDBRANCH  15  21
BRANCH  16  23
HETATM   23  O   LIG     1       2.219  -3.475   1.492  1.00  0.00    -0.390 OA
HETATM   24  H   LIG     1       2.959  -3.558   2.125  1.00  0.00     0.210 HD
ENDBRANCH  16  23
BRANCH  17  25
HETATM   25  O   LIG     1       3.776  -0.651  -0.298  1.00  0.00    -0.390 OA
HETATM   26  H   LIG     1       3.389  -0.974  -1.140  1.00  0.00     0.210 HD
ENDBRANCH  17  25
ENDBRANCH   3  12
BRANCH   4  27
HETATM   27  O   LIG     1       2.343   2.201   2.139  1.00  0.00    -0.359 OA
HETATM   28  H   LIG     1       2.479   3.072   2.581  1.00  0.00     0.217 HD
ENDBRANCH   4  27
BRANCH   5  29
HETATM   29  O   LIG     1       1.168  -2.298   3.436  1.00  0.00    -0.360 OA
HETATM   30  H   LIG     1       1.121  -2.454   2.470  1.00  0.00     0.217 HD
ENDBRANCH   5  29
BRANCH  10  31
HETATM   31  C   LIG     1       1.766   2.336   8.679  1.00  0.00     0.001 A 
HETATM   32  C   LIG     1       2.416   3.359   9.389  1.00  0.00     0.053 A 
HETATM   33  C   LIG     1       2.236   3.490  10.769  1.00  0.00     0.099 A 
HETATM   34  C   LIG     1       1.420   2.600  11.464  1.00  0.00     0.098 A 
HETATM   35  C   LIG     1       0.780   1.570  10.784  1.00  0.00     0.040 A 
HETATM   36  C   LIG     1       0.955   1.440   9.401  1.00  0.00     0.017 A 
BRANCH  33  37
HETATM   37  O   LIG     1       2.862   4.495  11.453  1.00  0.00    -0.358 OA
HETATM   38  H   LIG     1       3.381   5.032  10.837  1.00  0.00     0.217 HD
ENDBRANCH  33  37
BRANCH  34  39
HETATM   39  O   LIG     1       1.260   2.749  12.812  1.00  0.00    -0.358 OA
HETATM   40  H   LIG     1       0.673   2.053  13.143  1.00  0.00     0.217 HD
ENDBRANCH  34  39
ENDBRANCH  10  31
TORSDOF 11
