REMARK  4 active torsions:
REMARK  status: ('A' for Active; 'I' for Inactive)
REMARK    1  A    between atoms: O_1  and  C_16 
REMARK    2  A    between atoms: O_2  and  C_18 
REMARK    3  A    between atoms: O_3  and  C_21 
REMARK    4  A    between atoms: O_4  and  C_22 
ROOT
HETATM    1  N   LIG     1      -3.498   3.693  -2.062  1.00  0.00     0.093 N 
HETATM    2  C   LIG     1      -3.402   2.933  -0.793  1.00  0.00     0.261 C 
HETATM    3  C   LIG     1      -1.971   2.552  -0.470  1.00  0.00    -0.004 C 
HETATM    4  C   LIG     1      -4.421   1.798  -0.571  1.00  0.00     0.080 C 
HETATM    5  C   LIG     1      -1.056   3.628  -0.426  1.00  0.00    -0.044 C 
HETATM    6  C   LIG     1      -2.478   4.775  -2.135  1.00  0.00     0.277 C 
HETATM    7  C   LIG     1      -1.570   1.222  -0.244  1.00  0.00     0.020 C 
HETATM    8  C   LIG     1      -1.572   4.968  -0.892  1.00  0.00     0.069 C 
HETATM    9  C   LIG     1      -3.887   0.406  -0.787  1.00  0.00    -0.042 A 
HETATM   10  C   LIG     1      -2.520   0.122  -0.578  1.00  0.00    -0.013 A 
HETATM   11  C   LIG     1       0.253   3.426   0.003  1.00  0.00     0.047 C 
HETATM   12  C   LIG     1      -0.252   1.063   0.228  1.00  0.00     0.110 C 
HETATM   13  C   LIG     1      -3.424   2.837  -3.248  1.00  0.00     0.310 C 
HETATM   14  C   LIG     1       0.652   2.143   0.359  1.00  0.00     0.102 C 
HETATM   15  C   LIG     1      -4.795  -0.615  -1.125  1.00  0.00     0.047 A 
HETATM   16  C   LIG     1      -2.116  -1.209  -0.794  1.00  0.00     0.052 A 
HETATM   17  C   LIG     1      -3.007  -2.229  -1.168  1.00  0.00     0.102 A 
HETATM   18  C   LIG     1      -4.359  -1.925  -1.308  1.00  0.00     0.099 A 
ENDROOT
BRANCH  12  19
HETATM   19  O   LIG     1       0.214  -0.173   0.616  1.00  0.00    -0.357 OA
HETATM   20  H   LIG     1       1.131  -0.021   0.916  1.00  0.00     0.217 HD
ENDBRANCH  12  19
BRANCH  14  21
HETATM   21  O   LIG     1       1.897   1.793   0.827  1.00  0.00    -0.353 OA
HETATM   22  C   LIG     1       2.857   2.837   0.936  1.00  0.00     0.210 C 
ENDBRANCH  14  21
BRANCH  17  23
HETATM   23  O   LIG     1      -2.411  -3.453  -1.317  1.00  0.00    -0.353 OA
HETATM   24  C   LIG     1      -3.041  -4.364  -2.209  1.00  0.00     0.210 C 
ENDBRANCH  17  23
BRANCH  18  25
HETATM   25  O   LIG     1      -5.278  -2.890  -1.608  1.00  0.00    -0.358 OA
HETATM   26  H   LIG     1      -6.168  -2.508  -1.545  1.00  0.00     0.217 HD
ENDBRANCH  18  25
TORSDOF 4
