REMARK  5 active torsions:
REMARK  status: ('A' for Active; 'I' for Inactive)
REMARK    1  A    between atoms: O_1  and  C_6 
REMARK    2  A    between atoms: O_2  and  C_8 
REMARK    3  A    between atoms: O_3  and  C_14 
REMARK    4  A    between atoms: C_5  and  C_11 
REMARK    5  A    between atoms: C_12  and  C_14 
ROOT
HETATM    1  C   LIG     1      -1.700   0.504   3.813  1.00  0.00    -0.033 A 
HETATM    2  C   LIG     1      -0.070   0.636   1.499  1.00  0.00     0.101 A 
HETATM    3  C   LIG     1      -1.211   1.730   3.345  1.00  0.00     0.050 A 
HETATM    4  C   LIG     1      -0.403   1.798   2.204  1.00  0.00     0.099 A 
HETATM    5  C   LIG     1      -1.387  -0.655   3.096  1.00  0.00     0.014 A 
HETATM    6  C   LIG     1      -0.577  -0.587   1.955  1.00  0.00     0.040 A 
ENDROOT
BRANCH   1   7
HETATM    7  C   LIG     1      -2.550   0.513   5.016  1.00  0.00     0.018 C 
HETATM    8  C   LIG     1      -2.616  -0.495   5.902  1.00  0.00     0.082 C 
BRANCH   8   9
HETATM    9  C   LIG     1      -3.449  -0.384   7.114  1.00  0.00     0.165 C 
HETATM   10  O   LIG     1      -4.329   0.451   7.280  1.00  0.00    -0.647 OA
BRANCH   9  11
HETATM   11  O   LIG     1      -3.119  -1.300   8.044  1.00  0.00    -0.773 OA
HETATM   12  H   LIG     1      -2.403  -1.918   7.805  1.00  0.00     0.167 HD
ENDBRANCH   9  11
ENDBRANCH   8   9
ENDBRANCH   1   7
BRANCH   4  13
HETATM   13  O   LIG     1       0.043   3.030   1.811  1.00  0.00    -0.358 OA
HETATM   14  H   LIG     1      -0.272   3.705   2.433  1.00  0.00     0.217 HD
ENDBRANCH   4  13
BRANCH   2  15
HETATM   15  O   LIG     1       0.712   0.524   0.380  1.00  0.00    -0.353 OA
HETATM   16  C   LIG     1       1.312   1.715  -0.115  1.00  0.00     0.210 C 
ENDBRANCH   2  15
TORSDOF 5
