REMARK  1 active torsions:
REMARK  status: ('A' for Active; 'I' for Inactive)
REMARK    1  A    between atoms: O_3  and  C_20 
ROOT
HETATM    1  O   LIG     1       4.101  -1.125   0.906  1.00  0.00    -0.322 OA
HETATM    2  O   LIG     1       2.894   0.938   0.673  1.00  0.00    -0.323 OA
HETATM    3  N   LIG     1       8.758   2.539   2.745  1.00  0.00     0.093 N 
HETATM    4  C   LIG     1       8.342   1.239   2.147  1.00  0.00     0.261 C 
HETATM    5  C   LIG     1       6.855   1.195   1.757  1.00  0.00    -0.004 A 
HETATM    6  C   LIG     1       8.632   0.050   3.097  1.00  0.00     0.080 C 
HETATM    7  C   LIG     1       6.119   2.400   1.601  1.00  0.00    -0.044 A 
HETATM    8  C   LIG     1       6.253  -0.072   1.503  1.00  0.00     0.020 A 
HETATM    9  C   LIG     1       8.287   3.648   1.897  1.00  0.00     0.277 C 
HETATM   10  C   LIG     1       6.762   3.726   1.908  1.00  0.00     0.069 C 
HETATM   11  C   LIG     1       8.222  -1.261   2.463  1.00  0.00    -0.042 A 
HETATM   12  C   LIG     1       7.056  -1.306   1.672  1.00  0.00    -0.016 A 
HETATM   13  C   LIG     1       4.905  -0.047   1.144  1.00  0.00     0.116 A 
HETATM   14  C   LIG     1       4.770   2.362   1.234  1.00  0.00     0.047 A 
HETATM   15  C   LIG     1       4.198   1.131   1.016  1.00  0.00     0.106 A 
HETATM   16  C   LIG     1      10.214   2.632   2.891  1.00  0.00     0.310 C 
HETATM   17  C   LIG     1       8.988  -2.417   2.686  1.00  0.00     0.044 A 
HETATM   18  C   LIG     1       6.737  -2.534   1.072  1.00  0.00     0.015 A 
HETATM   19  C   LIG     1       8.640  -3.631   2.097  1.00  0.00     0.068 A 
HETATM   20  C   LIG     1       7.515  -3.683   1.280  1.00  0.00     0.037 A 
HETATM   21  C   LIG     1       2.839  -0.496   0.621  1.00  0.00     0.352 A 
ENDROOT
BRANCH  19  22
HETATM   22  O   LIG     1       9.476  -4.672   2.387  1.00  0.00    -0.356 OA
HETATM   23  C   LIG     1       9.144  -5.937   1.827  1.00  0.00     0.210 C 
ENDBRANCH  19  22
TORSDOF 1
