REMARK  15 active torsions:
REMARK  status: ('A' for Active; 'I' for Inactive)
REMARK    1  A    between atoms: O_2  and  C_21 
REMARK    2  A    between atoms: O_2  and  C_25 
REMARK    3  A    between atoms: O_4  and  C_17 
REMARK    4  A    between atoms: O_5  and  C_18 
REMARK    5  A    between atoms: O_6  and  C_28 
REMARK    6  A    between atoms: O_6  and  C_24 
REMARK    7  A    between atoms: O_7  and  C_19 
REMARK    8  A    between atoms: O_8  and  C_20 
REMARK    9  A    between atoms: O_9  and  C_22 
REMARK   10  A    between atoms: O_10  and  C_23 
REMARK   11  A    between atoms: O_13  and  C_34 
REMARK   12  A    between atoms: O_14  and  C_39 
REMARK   13  A    between atoms: O_15  and  C_42 
REMARK   14  A    between atoms: C_16  and  C_25 
REMARK   15  A    between atoms: C_29  and  C_33 
ROOT
HETATM    1  O   LIG     1      -1.069  -0.907   0.804  1.00  0.00    -0.348 OA
HETATM    2  C   LIG     1      -0.693   0.337   1.420  1.00  0.00     0.180 C 
HETATM    3  C   LIG     1      -1.848   0.904   2.253  1.00  0.00     0.180 C 
HETATM    4  C   LIG     1      -2.990   1.303   1.298  1.00  0.00     0.183 C 
HETATM    5  C   LIG     1      -3.100   0.367   0.082  1.00  0.00     0.205 C 
HETATM    6  C   LIG     1      -2.457  -1.017   0.371  1.00  0.00     0.298 C 
ENDROOT
BRANCH   6   7
HETATM    7  O   LIG     1      -3.152  -1.765   1.379  1.00  0.00    -0.311 OA
BRANCH   7   8
HETATM    8  C   LIG     1      -4.475  -2.148   1.219  1.00  0.00     0.157 C 
HETATM    9  C   LIG     1      -5.278  -2.330   2.295  1.00  0.00     0.123 C 
HETATM   10  O   LIG     1      -6.627  -2.652   2.215  1.00  0.00    -0.306 OA
HETATM   11  C   LIG     1      -7.243  -2.645   0.992  1.00  0.00     0.096 A 
HETATM   12  C   LIG     1      -6.532  -2.577  -0.199  1.00  0.00     0.084 A 
HETATM   13  C   LIG     1      -8.638  -2.752   0.994  1.00  0.00     0.075 A 
HETATM   14  C   LIG     1      -5.056  -2.522  -0.106  1.00  0.00     0.223 C 
HETATM   15  C   LIG     1      -7.237  -2.602  -1.415  1.00  0.00     0.085 A 
HETATM   16  O   LIG     1      -4.327  -2.836  -1.051  1.00  0.00    -0.284 OA
HETATM   17  C   LIG     1      -8.629  -2.721  -1.423  1.00  0.00     0.074 A 
HETATM   18  C   LIG     1      -9.318  -2.801  -0.218  1.00  0.00     0.071 A 
BRANCH   9  19
HETATM   19  C   LIG     1      -4.803  -2.250   3.704  1.00  0.00     0.001 A 
HETATM   20  C   LIG     1      -3.533  -2.715   4.091  1.00  0.00     0.017 A 
HETATM   21  C   LIG     1      -3.134  -2.707   5.430  1.00  0.00     0.037 A 
HETATM   22  C   LIG     1      -4.020  -2.275   6.403  1.00  0.00     0.065 A 
HETATM   23  C   LIG     1      -5.284  -1.813   6.063  1.00  0.00     0.037 A 
HETATM   24  C   LIG     1      -5.670  -1.798   4.716  1.00  0.00     0.017 A 
BRANCH  22  25
HETATM   25  O   LIG     1      -3.619  -2.340   7.703  1.00  0.00    -0.361 OA
HETATM   26  H   LIG     1      -4.346  -2.747   8.205  1.00  0.00     0.217 HD
ENDBRANCH  22  25
ENDBRANCH   9  19
BRANCH  15  27
HETATM   27  O   LIG     1      -6.583  -2.487  -2.609  1.00  0.00    -0.360 OA
HETATM   28  H   LIG     1      -7.190  -2.687  -3.340  1.00  0.00     0.217 HD
ENDBRANCH  15  27
BRANCH  18  29
HETATM   29  O   LIG     1     -10.674  -2.935  -0.273  1.00  0.00    -0.361 OA
HETATM   30  H   LIG     1     -11.025  -3.031   0.629  1.00  0.00     0.217 HD
ENDBRANCH  18  29
ENDBRANCH   7   8
ENDBRANCH   6   7
BRANCH   5  31
HETATM   31  O   LIG     1      -2.432   0.985  -1.038  1.00  0.00    -0.388 OA
HETATM   32  H   LIG     1      -3.068   1.593  -1.455  1.00  0.00     0.210 HD
ENDBRANCH   5  31
BRANCH   2  33
HETATM   33  C   LIG     1       0.638   0.173   2.194  1.00  0.00     0.205 C 
BRANCH  33  34
HETATM   34  O   LIG     1       0.555  -0.721   3.321  1.00  0.00    -0.356 OA
BRANCH  34  35
HETATM   35  C   LIG     1       1.796  -0.769   4.036  1.00  0.00     0.291 C 
HETATM   36  O   LIG     1       2.903  -1.238   3.257  1.00  0.00    -0.351 OA
HETATM   37  C   LIG     1       2.853  -2.633   2.914  1.00  0.00     0.152 C 
HETATM   38  C   LIG     1       2.801  -3.521   4.165  1.00  0.00     0.178 C 
HETATM   39  C   LIG     1       4.123  -2.928   2.115  1.00  0.00     0.042 C 
HETATM   40  C   LIG     1       1.654  -3.087   5.078  1.00  0.00     0.183 C 
HETATM   41  C   LIG     1       1.700  -1.582   5.345  1.00  0.00     0.204 C 
BRANCH  38  42
HETATM   42  O   LIG     1       2.639  -4.901   3.822  1.00  0.00    -0.390 OA
HETATM   43  H   LIG     1       2.419  -5.354   4.661  1.00  0.00     0.210 HD
ENDBRANCH  38  42
BRANCH  40  44
HETATM   44  O   LIG     1       1.792  -3.804   6.323  1.00  0.00    -0.390 OA
HETATM   45  H   LIG     1       2.375  -3.243   6.878  1.00  0.00     0.210 HD
ENDBRANCH  40  44
BRANCH  41  46
HETATM   46  O   LIG     1       2.858  -1.334   6.183  1.00  0.00    -0.388 OA
HETATM   47  H   LIG     1       3.581  -1.035   5.596  1.00  0.00     0.210 HD
ENDBRANCH  41  46
ENDBRANCH  34  35
ENDBRANCH  33  34
ENDBRANCH   2  33
BRANCH   4  48
HETATM   48  O   LIG     1      -4.232   1.330   2.020  1.00  0.00    -0.390 OA
HETATM   49  H   LIG     1      -4.081   1.923   2.780  1.00  0.00     0.210 HD
ENDBRANCH   4  48
BRANCH   3  50
HETATM   50  O   LIG     1      -1.491   2.064   3.015  1.00  0.00    -0.390 OA
HETATM   51  H   LIG     1      -1.113   1.741   3.854  1.00  0.00     0.210 HD
ENDBRANCH   3  50
TORSDOF 15
