REMARK  30 active torsions:
REMARK  status: ('A' for Active; 'I' for Inactive)
REMARK    1  A    between atoms: O_2  and  C_13 
REMARK    2  A    between atoms: O_3  and  C_14 
REMARK    3  A    between atoms: O_4  and  C_17 
REMARK    4  A    between atoms: O_6  and  C_28 
REMARK    5  A    between atoms: C_9  and  C_13 
REMARK    6  A    between atoms: C_10  and  C_14 
REMARK    7  A    between atoms: C_13  and  C_15 
REMARK    8  A    between atoms: C_14  and  C_16 
REMARK    9  A    between atoms: C_15  and  C_17 
REMARK   10  A    between atoms: C_16  and  C_19 
REMARK   11  A    between atoms: C_17  and  C_18 
REMARK   12  A    between atoms: C_18  and  C_20 
REMARK   13  A    between atoms: C_19  and  C_22 
REMARK   14  A    between atoms: C_20  and  C_21 
REMARK   15  A    between atoms: C_21  and  C_23 
REMARK   16  A    between atoms: C_22  and  C_24 
REMARK   17  A    between atoms: C_23  and  C_26 
REMARK   18  A    between atoms: C_24  and  C_25 
REMARK   19  A    between atoms: C_25  and  C_27 
REMARK   20  A    between atoms: C_26  and  C_29 
REMARK   21  A    between atoms: C_27  and  C_28 
REMARK   22  A    between atoms: C_28  and  C_30 
REMARK   23  A    between atoms: C_29  and  C_32 
REMARK   24  A    between atoms: C_30  and  C_31 
REMARK   25  A    between atoms: C_31  and  C_33 
REMARK   26  A    between atoms: C_32  and  C_34 
REMARK   27  A    between atoms: C_33  and  C_35 
REMARK   28  A    between atoms: C_34  and  C_37 
REMARK   29  A    between atoms: C_35  and  C_36 
REMARK   30  A    between atoms: C_36  and  C_38 
ROOT
HETATM    1  C   LIG     1      -2.632   3.170   2.349  1.00  0.00     0.147 C 
ENDROOT
BRANCH   1   2
HETATM    2  O   LIG     1      -2.553   1.733   2.195  1.00  0.00    -0.393 OA
HETATM    3  H   LIG     1      -1.634   1.466   2.340  1.00  0.00     0.210 HD
ENDBRANCH   1   2
BRANCH   1   4
HETATM    4  C   LIG     1      -2.431   3.700   0.971  1.00  0.00     0.150 C 
HETATM    5  O   LIG     1      -1.056   3.498   0.637  1.00  0.00    -0.376 OA
HETATM    6  C   LIG     1      -0.595   4.726   0.034  1.00  0.00     0.151 C 
HETATM    7  C   LIG     1      -1.810   5.636  -0.210  1.00  0.00     0.037 C 
HETATM    8  C   LIG     1      -2.578   5.176   0.929  1.00  0.00     0.037 C 
BRANCH   6   9
HETATM    9  C   LIG     1       0.038   4.398  -1.273  1.00  0.00     0.149 C 
BRANCH   9  10
HETATM   10  O   LIG     1      -0.930   3.719  -2.091  1.00  0.00    -0.393 OA
HETATM   11  H   LIG     1      -1.671   4.325  -2.260  1.00  0.00     0.210 HD
ENDBRANCH   9  10
BRANCH   9  12
HETATM   12  C   LIG     1       1.234   3.477  -1.115  1.00  0.00     0.066 C 
BRANCH  12  13
HETATM   13  C   LIG     1       2.408   3.996  -0.270  1.00  0.00     0.120 C 
BRANCH  13  14
HETATM   14  O   LIG     1       3.458   3.032  -0.373  1.00  0.00    -0.395 OA
HETATM   15  H   LIG     1       3.414   2.475   0.423  1.00  0.00     0.210 HD
ENDBRANCH  13  14
BRANCH  13  16
HETATM   16  C   LIG     1       2.991   5.357  -0.686  1.00  0.00     0.032 C 
BRANCH  16  17
HETATM   17  C   LIG     1       4.163   5.827   0.206  1.00  0.00     0.002 C 
BRANCH  17  18
HETATM   18  C   LIG     1       3.796   6.047   1.688  1.00  0.00     0.000 C 
BRANCH  18  19
HETATM   19  C   LIG     1       2.695   7.118   1.886  1.00  0.00     0.000 C 
BRANCH  19  20
HETATM   20  C   LIG     1       2.415   7.421   3.365  1.00  0.00     0.000 C 
BRANCH  20  21
HETATM   21  C   LIG     1       1.345   8.474   3.705  1.00  0.00     0.000 C 
BRANCH  21  22
HETATM   22  C   LIG     1      -0.036   8.348   3.161  1.00  0.00     0.000 C 
BRANCH  22  23
HETATM   23  C   LIG     1      -0.618   7.111   3.679  1.00  0.00    -0.000 C 
BRANCH  23  24
HETATM   24  C   LIG     1      -1.979   7.206   3.149  1.00  0.00    -0.005 C 
HETATM   25  C   LIG     1      -2.354   5.883   3.541  1.00  0.00     0.005 C 
ENDBRANCH  23  24
ENDBRANCH  22  23
ENDBRANCH  21  22
ENDBRANCH  20  21
ENDBRANCH  19  20
ENDBRANCH  18  19
ENDBRANCH  17  18
ENDBRANCH  16  17
ENDBRANCH  13  16
ENDBRANCH  12  13
ENDBRANCH   9  12
ENDBRANCH   6   9
ENDBRANCH   1   4
BRANCH   1  26
HETATM   26  C   LIG     1      -4.057   3.750   2.976  1.00  0.00     0.041 C 
BRANCH  26  27
HETATM   27  C   LIG     1      -4.685   5.110   3.841  1.00  0.00     0.081 C 
BRANCH  27  28
HETATM   28  C   LIG     1      -3.982   5.790   5.303  1.00  0.00     0.127 C 
HETATM   29  O   LIG     1      -4.117   7.025   5.472  1.00  0.00    -0.298 OA
BRANCH  28  30
HETATM   30  C   LIG     1      -3.057   5.081   6.421  1.00  0.00     0.078 C 
BRANCH  30  31
HETATM   31  C   LIG     1      -1.997   4.035   6.207  1.00  0.00     0.010 C 
BRANCH  31  32
HETATM   32  C   LIG     1      -2.631   2.914   5.493  1.00  0.00     0.032 C 
BRANCH  32  33
HETATM   33  C   LIG     1      -3.986   2.274   5.945  1.00  0.00     0.118 C 
BRANCH  33  34
HETATM   34  O   LIG     1      -4.557   1.355   5.101  1.00  0.00    -0.396 OA
HETATM   35  H   LIG     1      -5.191   0.773   5.617  1.00  0.00     0.210 HD
ENDBRANCH  33  34
BRANCH  33  36
HETATM   36  C   LIG     1      -5.302   2.823   6.407  1.00  0.00     0.032 C 
BRANCH  36  37
HETATM   37  C   LIG     1      -6.083   3.142   5.145  1.00  0.00     0.002 C 
BRANCH  37  38
HETATM   38  C   LIG     1      -6.331   2.245   3.770  1.00  0.00     0.000 C 
BRANCH  38  39
HETATM   39  C   LIG     1      -5.276   1.146   2.914  1.00  0.00     0.005 C 
BRANCH  39  40
HETATM   40  C   LIG     1      -4.312  -0.200   3.559  1.00  0.00     0.043 C 
BRANCH  40  41
HETATM   41  C   LIG     1      -3.101  -0.318   4.845  1.00  0.00     0.002 C 
HETATM   42  C   LIG     1      -3.357  -0.558   6.196  1.00  0.00     0.017 C 
HETATM   43  C   LIG     1      -2.370   0.089   7.174  1.00  0.00     0.150 C 
HETATM   44  O   LIG     1      -1.354   0.511   6.190  1.00  0.00    -0.319 OA
HETATM   45  C   LIG     1      -2.845   1.260   8.353  1.00  0.00     0.044 C 
HETATM   46  C   LIG     1      -1.780   0.193   4.925  1.00  0.00     0.222 C 
HETATM   47  O   LIG     1      -0.978   0.722   3.759  1.00  0.00    -0.164 OA
ENDBRANCH  40  41
ENDBRANCH  39  40
ENDBRANCH  38  39
ENDBRANCH  37  38
ENDBRANCH  36  37
ENDBRANCH  33  36
ENDBRANCH  32  33
ENDBRANCH  31  32
ENDBRANCH  30  31
ENDBRANCH  28  30
ENDBRANCH  27  28
ENDBRANCH  26  27
ENDBRANCH   1  26
TORSDOF 30
