REMARK  5 active torsions:
REMARK  status: ('A' for Active; 'I' for Inactive)
REMARK    1  A    between atoms: O_2  and  C_11 
REMARK    2  A    between atoms: O_3  and  C_13 
REMARK    3  A    between atoms: O_5  and  C_15 
REMARK    4  A    between atoms: O_6  and  C_21 
REMARK    5  A    between atoms: C_9  and  C_12 
ROOT
HETATM    1  O   LIG     1       1.409  -1.215   0.095  1.00  0.00    -0.306 OA
HETATM    2  O   LIG     1       1.177   2.814  -0.344  1.00  0.00    -0.284 OA
HETATM    3  C   LIG     1       0.028   0.775  -0.067  1.00  0.00     0.084 A 
HETATM    4  C   LIG     1       0.183  -0.600   0.078  1.00  0.00     0.096 A 
HETATM    5  C   LIG     1       2.555  -0.437  -0.024  1.00  0.00     0.123 A 
HETATM    6  C   LIG     1       1.233   1.594  -0.205  1.00  0.00     0.223 A 
HETATM    7  C   LIG     1       2.541   0.900  -0.175  1.00  0.00     0.152 A 
HETATM    8  C   LIG     1      -1.251   1.340  -0.079  1.00  0.00     0.085 A 
HETATM    9  C   LIG     1      -0.939  -1.416   0.211  1.00  0.00     0.075 A 
HETATM   10  C   LIG     1      -2.209  -0.845   0.199  1.00  0.00     0.071 A 
HETATM   11  C   LIG     1      -2.377   0.530   0.055  1.00  0.00     0.074 A 
ENDROOT
BRANCH   5  12
HETATM   12  C   LIG     1       3.798  -1.238   0.006  1.00  0.00     0.001 A 
HETATM   13  C   LIG     1       3.882  -2.424  -0.742  1.00  0.00     0.017 A 
HETATM   14  C   LIG     1       5.037  -3.209  -0.710  1.00  0.00     0.037 A 
HETATM   15  C   LIG     1       6.113  -2.817   0.075  1.00  0.00     0.065 A 
HETATM   16  C   LIG     1       6.054  -1.654   0.833  1.00  0.00     0.037 A 
HETATM   17  C   LIG     1       4.896  -0.870   0.800  1.00  0.00     0.017 A 
BRANCH  15  18
HETATM   18  O   LIG     1       7.221  -3.611   0.077  1.00  0.00    -0.361 OA
HETATM   19  H   LIG     1       7.889  -3.208   0.655  1.00  0.00     0.217 HD
ENDBRANCH  15  18
ENDBRANCH   5  12
BRANCH   7  20
HETATM   20  O   LIG     1       3.672   1.682  -0.322  1.00  0.00    -0.355 OA
HETATM   21  H   LIG     1       3.340   2.597  -0.444  1.00  0.00     0.218 HD
ENDBRANCH   7  20
BRANCH   8  22
HETATM   22  O   LIG     1      -1.473   2.684  -0.218  1.00  0.00    -0.360 OA
HETATM   23  H   LIG     1      -0.604   3.136  -0.306  1.00  0.00     0.217 HD
ENDBRANCH   8  22
BRANCH  10  24
HETATM   24  O   LIG     1      -3.279  -1.679   0.332  1.00  0.00    -0.361 OA
HETATM   25  H   LIG     1      -4.095  -1.151   0.307  1.00  0.00     0.217 HD
ENDBRANCH  10  24
TORSDOF 5
