REMARK  0 active torsions:
REMARK  status: ('A' for Active; 'I' for Inactive)
ROOT
HETATM    1  O   LIG     1       3.919   1.402   0.781  1.00  0.00    -0.322 OA
HETATM    2  O   LIG     1       2.920  -0.757   0.835  1.00  0.00    -0.323 OA
HETATM    3  O   LIG     1      10.114   0.908   2.574  1.00  0.00    -0.285 OA
HETATM    4  N   LIG     1       8.953  -1.562   2.501  1.00  0.00    -0.256 NA
HETATM    5  C   LIG     1       6.070   0.709   1.793  1.00  0.00     0.025 A 
HETATM    6  C   LIG     1       6.811  -0.474   2.071  1.00  0.00     0.021 A 
HETATM    7  C   LIG     1       6.737   2.029   1.918  1.00  0.00    -0.008 A 
HETATM    8  C   LIG     1       4.766   0.492   1.357  1.00  0.00     0.117 C 
HETATM    9  C   LIG     1       6.204  -1.765   2.036  1.00  0.00    -0.018 A 
HETATM   10  C   LIG     1       8.182  -0.452   2.330  1.00  0.00     0.119 A 
HETATM   11  C   LIG     1       8.119   2.091   2.200  1.00  0.00     0.028 A 
HETATM   12  C   LIG     1       4.178  -0.762   1.362  1.00  0.00     0.106 C 
HETATM   13  C   LIG     1       4.847  -1.896   1.749  1.00  0.00     0.052 C 
HETATM   14  C   LIG     1       8.897   0.846   2.379  1.00  0.00     0.212 A 
HETATM   15  C   LIG     1       6.063   3.262   1.820  1.00  0.00     0.013 A 
HETATM   16  C   LIG     1       6.984  -2.907   2.227  1.00  0.00     0.031 A 
HETATM   17  C   LIG     1       2.963   0.514   0.169  1.00  0.00     0.352 C 
HETATM   18  C   LIG     1       8.792   3.318   2.343  1.00  0.00     0.016 A 
HETATM   19  C   LIG     1       8.341  -2.756   2.432  1.00  0.00     0.118 A 
HETATM   20  C   LIG     1       6.733   4.486   1.968  1.00  0.00     0.001 A 
HETATM   21  C   LIG     1       8.098   4.515   2.225  1.00  0.00     0.001 A 
ENDROOT
TORSDOF 0
