REMARK  29 active torsions:
REMARK  status: ('A' for Active; 'I' for Inactive)
REMARK    1  A    between atoms: O_2  and  C_11 
REMARK    2  A    between atoms: O_3  and  C_12 
REMARK    3  A    between atoms: O_4  and  C_17 
REMARK    4  A    between atoms: C_7  and  C_11 
REMARK    5  A    between atoms: C_8  and  C_12 
REMARK    6  A    between atoms: C_11  and  C_13 
REMARK    7  A    between atoms: C_12  and  C_14 
REMARK    8  A    between atoms: C_13  and  C_15 
REMARK    9  A    between atoms: C_14  and  C_16 
REMARK   10  A    between atoms: C_15  and  C_17 
REMARK   11  A    between atoms: C_16  and  C_18 
REMARK   12  A    between atoms: C_17  and  C_19 
REMARK   13  A    between atoms: C_18  and  C_20 
REMARK   14  A    between atoms: C_19  and  C_21 
REMARK   15  A    between atoms: C_20  and  C_22 
REMARK   16  A    between atoms: C_21  and  C_23 
REMARK   17  A    between atoms: C_22  and  C_24 
REMARK   18  A    between atoms: C_23  and  C_25 
REMARK   19  A    between atoms: C_24  and  C_26 
REMARK   20  A    between atoms: C_25  and  C_28 
REMARK   21  A    between atoms: C_26  and  C_27 
REMARK   22  A    between atoms: C_27  and  C_29 
REMARK   23  A    between atoms: C_28  and  C_30 
REMARK   24  A    between atoms: C_29  and  C_31 
REMARK   25  A    between atoms: C_30  and  C_32 
REMARK   26  A    between atoms: C_31  and  C_33 
REMARK   27  A    between atoms: C_32  and  C_35 
REMARK   28  A    between atoms: C_33  and  C_34 
REMARK   29  A    between atoms: C_34  and  C_36 
ROOT
HETATM    1  O   LIG     1       2.186   0.604   0.607  1.00  0.00    -0.376 OA
HETATM    2  C   LIG     1       0.746   0.483   0.453  1.00  0.00     0.150 C 
HETATM    3  C   LIG     1       2.785   0.709  -0.705  1.00  0.00     0.150 C 
HETATM    4  C   LIG     1       0.459   0.851  -0.995  1.00  0.00     0.037 C 
HETATM    5  C   LIG     1       1.686   0.283  -1.676  1.00  0.00     0.037 C 
ENDROOT
BRANCH   2   6
HETATM    6  C   LIG     1      -0.003   1.316   1.520  1.00  0.00     0.147 C 
BRANCH   6   7
HETATM    7  O   LIG     1       0.256   2.715   1.387  1.00  0.00    -0.393 OA
HETATM    8  H   LIG     1       1.057   2.815   0.841  1.00  0.00     0.210 HD
ENDBRANCH   6   7
BRANCH   6   9
HETATM    9  C   LIG     1       0.388   0.833   2.927  1.00  0.00     0.036 C 
BRANCH   9  10
HETATM   10  C   LIG     1      -0.295   1.588   4.077  1.00  0.00     0.034 C 
BRANCH  10  11
HETATM   11  C   LIG     1       0.102   1.073   5.474  1.00  0.00     0.118 C 
BRANCH  11  12
HETATM   12  O   LIG     1       1.504   1.253   5.667  1.00  0.00    -0.396 OA
HETATM   13  H   LIG     1       1.631   2.139   6.047  1.00  0.00     0.210 HD
ENDBRANCH  11  12
BRANCH  11  14
HETATM   14  C   LIG     1      -0.243  -0.406   5.707  1.00  0.00     0.032 C 
BRANCH  14  15
HETATM   15  C   LIG     1       0.206  -0.894   7.090  1.00  0.00     0.002 C 
BRANCH  15  16
HETATM   16  C   LIG     1      -0.154  -2.365   7.318  1.00  0.00     0.000 C 
BRANCH  16  17
HETATM   17  C   LIG     1       0.315  -2.897   8.680  1.00  0.00     0.000 C 
BRANCH  17  18
HETATM   18  C   LIG     1      -0.316  -2.179   9.886  1.00  0.00     0.000 C 
BRANCH  18  19
HETATM   19  C   LIG     1       0.173  -2.774  11.212  1.00  0.00     0.005 C 
BRANCH  19  20
HETATM   20  C   LIG     1      -0.395  -2.121  12.485  1.00  0.00     0.044 C 
BRANCH  20  21
HETATM   21  C   LIG     1      -0.119  -0.669  12.701  1.00  0.00     0.016 A 
HETATM   22  C   LIG     1       0.876  -0.069  13.365  1.00  0.00     0.018 A 
HETATM   23  C   LIG     1       0.677   1.393  13.426  1.00  0.00     0.151 A 
HETATM   24  O   LIG     1      -0.568   1.596  12.759  1.00  0.00    -0.309 OA
HETATM   25  C   LIG     1       0.591   1.947  14.845  1.00  0.00     0.044 C 
HETATM   26  C   LIG     1      -1.055   0.396  12.358  1.00  0.00     0.289 A 
HETATM   27  O   LIG     1      -2.144   0.229  11.796  1.00  0.00    -0.260 OA
ENDBRANCH  20  21
ENDBRANCH  19  20
ENDBRANCH  18  19
ENDBRANCH  17  18
ENDBRANCH  16  17
ENDBRANCH  15  16
ENDBRANCH  14  15
ENDBRANCH  11  14
ENDBRANCH  10  11
ENDBRANCH   9  10
ENDBRANCH   6   9
ENDBRANCH   2   6
BRANCH   3  28
HETATM   28  C   LIG     1       4.091  -0.105  -0.811  1.00  0.00     0.147 C 
BRANCH  28  29
HETATM   29  O   LIG     1       3.804  -1.493  -0.563  1.00  0.00    -0.393 OA
HETATM   30  H   LIG     1       3.399  -1.532   0.325  1.00  0.00     0.210 HD
ENDBRANCH  28  29
BRANCH  28  31
HETATM   31  C   LIG     1       5.227   0.294   0.153  1.00  0.00     0.034 C 
BRANCH  31  32
HETATM   32  C   LIG     1       5.681   1.759   0.190  1.00  0.00     0.002 C 
BRANCH  32  33
HETATM   33  C   LIG     1       6.208   2.365  -1.115  1.00  0.00     0.000 C 
BRANCH  33  34
HETATM   34  C   LIG     1       7.432   1.678  -1.737  1.00  0.00     0.000 C 
BRANCH  34  35
HETATM   35  C   LIG     1       8.723   1.637  -0.892  1.00  0.00     0.000 C 
BRANCH  35  36
HETATM   36  C   LIG     1       9.315   3.020  -0.556  1.00  0.00     0.000 C 
BRANCH  36  37
HETATM   37  C   LIG     1      10.647   2.953   0.220  1.00  0.00     0.000 C 
BRANCH  37  38
HETATM   38  C   LIG     1      11.229   4.332   0.616  1.00  0.00     0.000 C 
BRANCH  38  39
HETATM   39  C   LIG     1      11.600   5.234  -0.571  1.00  0.00     0.000 C 
BRANCH  39  40
HETATM   40  C   LIG     1      12.176   6.618  -0.197  1.00  0.00     0.000 C 
BRANCH  40  41
HETATM   41  C   LIG     1      13.488   6.570   0.598  1.00  0.00     0.000 C 
BRANCH  41  42
HETATM   42  C   LIG     1      14.059   7.966   0.906  1.00  0.00    -0.000 C 
BRANCH  42  43
HETATM   43  C   LIG     1      15.369   7.931   1.709  1.00  0.00    -0.005 C 
HETATM   44  C   LIG     1      16.516   7.241   0.984  1.00  0.00     0.005 C 
ENDBRANCH  42  43
ENDBRANCH  41  42
ENDBRANCH  40  41
ENDBRANCH  39  40
ENDBRANCH  38  39
ENDBRANCH  37  38
ENDBRANCH  36  37
ENDBRANCH  35  36
ENDBRANCH  34  35
ENDBRANCH  33  34
ENDBRANCH  32  33
ENDBRANCH  31  32
ENDBRANCH  28  31
ENDBRANCH   3  28
TORSDOF 29
