REMARK  12 active torsions:
REMARK  status: ('A' for Active; 'I' for Inactive)
REMARK    1  A    between atoms: O_1  and  C_6 
REMARK    2  A    between atoms: O_2  and  C_13 
REMARK    3  A    between atoms: C_4  and  C_15 
REMARK    4  A    between atoms: C_14  and  C_22 
REMARK    5  A    between atoms: C_21  and  C_24 
REMARK    6  A    between atoms: C_25  and  C_27 
REMARK    7  A    between atoms: C_28  and  C_31 
REMARK    8  A    between atoms: C_30  and  C_32 
REMARK    9  A    between atoms: C_33  and  C_34 
REMARK   10  A    between atoms: C_35  and  C_36 
REMARK   11  A    between atoms: C_38  and  C_41 
REMARK   12  A    between atoms: C_39  and  C_42 
ROOT
HETATM    1  C   LIG     1      -1.879   9.250   8.564  1.00  0.00     0.001 C 
HETATM    2  C   LIG     1      -2.162  10.138   9.487  1.00  0.00     0.001 C 
ENDROOT
BRANCH   1   3
HETATM    3  C   LIG     1      -1.540   7.864   8.749  1.00  0.00     0.007 C 
HETATM    4  C   LIG     1      -1.997   7.002   9.652  1.00  0.00    -0.062 C 
HETATM    5  C   LIG     1      -2.905   7.227  10.833  1.00  0.00     0.048 C 
BRANCH   4   6
HETATM    6  C   LIG     1      -1.669   5.610   9.441  1.00  0.00     0.007 C 
HETATM    7  C   LIG     1      -1.006   4.862  10.322  1.00  0.00     0.001 C 
BRANCH   7   8
HETATM    8  C   LIG     1      -0.834   3.463  10.086  1.00  0.00     0.007 C 
HETATM    9  C   LIG     1       0.344   2.814  10.029  1.00  0.00    -0.062 C 
HETATM   10  C   LIG     1       1.687   3.470  10.218  1.00  0.00     0.048 C 
BRANCH   9  11
HETATM   11  C   LIG     1       0.331   1.393   9.742  1.00  0.00     0.003 C 
HETATM   12  C   LIG     1       1.422   0.632   9.585  1.00  0.00    -0.016 C 
BRANCH  12  13
HETATM   13  C   LIG     1       1.435  -0.843   9.269  1.00  0.00     0.044 C 
HETATM   14  C   LIG     1       1.470  -1.125   7.729  1.00  0.00    -0.035 C 
HETATM   15  C   LIG     1       0.062  -0.884   7.125  1.00  0.00     0.045 C 
HETATM   16  C   LIG     1       1.929  -2.581   7.495  1.00  0.00     0.016 C 
HETATM   17  C   LIG     1       2.484  -0.219   6.990  1.00  0.00     0.016 C 
HETATM   18  C   LIG     1      -1.073  -1.615   7.859  1.00  0.00     0.142 C 
HETATM   19  C   LIG     1      -0.835  -1.888   9.315  1.00  0.00     0.007 C 
HETATM   20  C   LIG     1       0.286  -1.546   9.975  1.00  0.00    -0.077 C 
HETATM   21  C   LIG     1       0.455  -1.793  11.450  1.00  0.00     0.044 C 
BRANCH  18  22
HETATM   22  O   LIG     1      -1.329  -2.855   7.213  1.00  0.00    -0.392 OA
HETATM   23  H   LIG     1      -0.717  -3.508   7.591  1.00  0.00     0.210 HD
ENDBRANCH  18  22
ENDBRANCH  12  13
ENDBRANCH   9  11
ENDBRANCH   7   8
ENDBRANCH   4   6
ENDBRANCH   1   3
BRANCH   2  24
HETATM   24  C   LIG     1      -2.394  11.527   9.207  1.00  0.00     0.007 C 
HETATM   25  C   LIG     1      -1.700  12.280   8.357  1.00  0.00    -0.062 C 
HETATM   26  C   LIG     1      -0.486  11.885   7.547  1.00  0.00     0.048 C 
BRANCH  25  27
HETATM   27  C   LIG     1      -2.143  13.645   8.232  1.00  0.00     0.007 C 
HETATM   28  C   LIG     1      -1.888  14.464   7.224  1.00  0.00     0.001 C 
BRANCH  28  29
HETATM   29  C   LIG     1      -2.276  15.844   7.211  1.00  0.00     0.007 C 
HETATM   30  C   LIG     1      -2.221  16.695   8.249  1.00  0.00    -0.062 C 
HETATM   31  C   LIG     1      -1.852  16.416   9.688  1.00  0.00     0.048 C 
BRANCH  30  32
HETATM   32  C   LIG     1      -2.564  18.077   8.001  1.00  0.00     0.007 C 
HETATM   33  C   LIG     1      -1.736  19.083   8.310  1.00  0.00     0.009 C 
BRANCH  33  34
HETATM   34  C   LIG     1      -2.069  20.483   8.142  1.00  0.00    -0.048 C 
HETATM   35  C   LIG     1      -1.175  21.250   7.142  1.00  0.00    -0.018 C 
HETATM   36  C   LIG     1      -1.688  22.702   6.943  1.00  0.00     0.045 C 
HETATM   37  C   LIG     1      -1.205  20.576   5.745  1.00  0.00     0.020 C 
HETATM   38  C   LIG     1       0.305  21.274   7.603  1.00  0.00     0.020 C 
HETATM   39  C   LIG     1      -2.207  23.339   8.224  1.00  0.00     0.123 C 
HETATM   40  C   LIG     1      -3.367  22.529   8.792  1.00  0.00     0.066 C 
HETATM   41  C   LIG     1      -3.075  21.048   8.857  1.00  0.00    -0.074 C 
HETATM   42  C   LIG     1      -3.983  20.314   9.823  1.00  0.00     0.044 C 
BRANCH  39  43
HETATM   43  O   LIG     1      -1.165  23.456   9.187  1.00  0.00    -0.395 OA
HETATM   44  H   LIG     1      -1.077  22.614   9.669  1.00  0.00     0.210 HD
ENDBRANCH  39  43
ENDBRANCH  33  34
ENDBRANCH  30  32
ENDBRANCH  28  29
ENDBRANCH  25  27
ENDBRANCH   2  24
TORSDOF 12
