REMARK  2 active torsions:
REMARK  status: ('A' for Active; 'I' for Inactive)
REMARK    1  A    between atoms: N_4  and  C_9 
REMARK    2  A    between atoms: C_13  and  C_16 
ROOT
HETATM    1  O   LIG     1      -0.958  -3.338   0.903  1.00  0.00    -0.292 OA
HETATM    2  O   LIG     1      -3.894  -2.537   3.568  1.00  0.00    -0.287 OA
HETATM    3  C   LIG     1      -1.446  -2.037   1.046  1.00  0.00     0.150 A 
HETATM    4  C   LIG     1      -1.394  -4.353   1.728  1.00  0.00     0.103 A 
HETATM    5  C   LIG     1      -2.419  -4.137   2.654  1.00  0.00     0.049 A 
HETATM    6  C   LIG     1      -2.408  -1.749   1.937  1.00  0.00     0.112 A 
HETATM    7  C   LIG     1      -0.800  -5.632   1.612  1.00  0.00     0.009 A 
HETATM    8  C   LIG     1      -2.987  -2.794   2.783  1.00  0.00     0.189 A 
HETATM    9  C   LIG     1      -2.898  -5.169   3.464  1.00  0.00     0.018 A 
HETATM   10  C   LIG     1      -1.295  -6.654   2.456  1.00  0.00     0.015 A 
HETATM   11  C   LIG     1      -2.335  -6.433   3.362  1.00  0.00     0.002 A 
ENDROOT
BRANCH   3  12
HETATM   12  N   LIG     1      -0.848  -1.081   0.214  1.00  0.00    -0.357 N 
HETATM   13  C   LIG     1       0.201  -1.428  -0.773  1.00  0.00     0.151 C 
HETATM   14  C   LIG     1      -0.386  -1.392  -2.191  1.00  0.00     0.187 C 
HETATM   15  O   LIG     1      -0.947  -0.101  -2.492  1.00  0.00    -0.388 OA
HETATM   16  C   LIG     1      -1.976   0.232  -1.544  1.00  0.00     0.187 C 
HETATM   17  C   LIG     1      -1.433   0.242  -0.106  1.00  0.00     0.151 C 
ENDBRANCH   3  12
BRANCH   7  18
HETATM   18  C   LIG     1       0.309  -5.949   0.674  1.00  0.00    -0.023 A 
HETATM   19  C   LIG     1       0.337  -7.168  -0.032  1.00  0.00     0.012 A 
HETATM   20  C   LIG     1       1.397  -7.501  -0.883  1.00  0.00     0.001 A 
HETATM   21  C   LIG     1       2.447  -6.610  -1.067  1.00  0.00     0.000 A 
HETATM   22  C   LIG     1       2.445  -5.395  -0.389  1.00  0.00     0.001 A 
HETATM   23  C   LIG     1       1.396  -5.078   0.482  1.00  0.00     0.012 A 
ENDBRANCH   7  18
TORSDOF 2
