REMARK  2 active torsions:
REMARK  status: ('A' for Active; 'I' for Inactive)
REMARK    1  A    between atoms: N_6  and  C_15 
REMARK    2  A    between atoms: C_8  and  C_15 
ROOT
HETATM    1  O   LIG     1      -0.412  -9.592  -6.190  1.00  0.00    -0.382 OA
HETATM    2  O   LIG     1       5.343  -5.706  -1.452  1.00  0.00    -0.267 OA
HETATM    3  O   LIG     1       2.248  -2.609  -2.510  1.00  0.00    -0.267 OA
HETATM    4  N   LIG     1       2.637  -9.290  -3.725  1.00  0.00    -0.355 N 
HETATM    5  N   LIG     1      -0.095  -6.023  -5.420  1.00  0.00    -0.353 N 
HETATM    6  N   LIG     1       4.009  -3.906  -1.861  1.00  0.00    -0.289 N 
HETATM    7  C   LIG     1       0.988  -9.844  -6.419  1.00  0.00     0.151 C 
HETATM    8  C   LIG     1       1.548 -10.857  -5.401  1.00  0.00     0.054 C 
HETATM    9  C   LIG     1       1.701 -10.382  -3.950  1.00  0.00     0.131 C 
HETATM   10  C   LIG     1       3.393  -7.252  -3.194  1.00  0.00     0.009 C 
HETATM   11  C   LIG     1       4.004  -9.326  -3.922  1.00  0.00     0.045 A 
HETATM   12  C   LIG     1       4.499  -8.045  -3.629  1.00  0.00     0.003 A 
HETATM   13  C   LIG     1       3.362  -5.868  -2.837  1.00  0.00     0.061 A 
HETATM   14  C   LIG     1       1.253  -5.097  -3.923  1.00  0.00     0.009 C 
HETATM   15  C   LIG     1       2.288  -8.080  -3.183  1.00  0.00     0.104 C 
HETATM   16  C   LIG     1       2.436  -4.936  -3.146  1.00  0.00     0.061 A 
HETATM   17  C   LIG     1      -0.508  -7.101  -6.313  1.00  0.00     0.154 C 
HETATM   18  C   LIG     1      -0.092  -4.764  -3.574  1.00  0.00     0.003 A 
HETATM   19  C   LIG     1      -0.920  -5.349  -4.543  1.00  0.00     0.045 A 
HETATM   20  C   LIG     1      -0.733  -8.385  -5.503  1.00  0.00     0.188 C 
HETATM   21  C   LIG     1       1.218  -5.755  -5.134  1.00  0.00     0.104 C 
HETATM   22  C   LIG     1       4.373  -5.200  -1.982  1.00  0.00     0.260 A 
HETATM   23  C   LIG     1       4.849 -10.369  -4.337  1.00  0.00     0.030 A 
HETATM   24  C   LIG     1       2.844  -3.672  -2.494  1.00  0.00     0.260 A 
HETATM   25  C   LIG     1       5.879  -7.803  -3.810  1.00  0.00     0.014 A 
HETATM   26  C   LIG     1      -0.699  -4.089  -2.493  1.00  0.00     0.014 A 
HETATM   27  C   LIG     1      -2.321  -5.267  -4.477  1.00  0.00     0.030 A 
HETATM   28  C   LIG     1       6.212 -10.103  -4.485  1.00  0.00     0.002 A 
HETATM   29  C   LIG     1       6.722  -8.836  -4.232  1.00  0.00     0.001 A 
HETATM   30  C   LIG     1      -2.093  -3.996  -2.424  1.00  0.00     0.001 A 
HETATM   31  C   LIG     1      -2.891  -4.575  -3.404  1.00  0.00     0.002 A 
HETATM   32  H   LIG     1       4.504  -3.227  -1.308  1.00  0.00     0.172 HD
ENDROOT
BRANCH   7  33
HETATM   33  C   LIG     1       1.040 -10.452  -7.855  1.00  0.00     0.303 C 
BRANCH  33  34
HETATM   34  N   LIG     1       2.361 -10.832  -8.392  1.00  0.00     0.082 N 
HETATM   35  C   LIG     1       2.200 -11.396  -9.737  1.00  0.00     0.309 C 
HETATM   36  C   LIG     1       3.283  -9.697  -8.433  1.00  0.00     0.309 C 
ENDBRANCH  33  34
ENDBRANCH   7  33
TORSDOF 2
