REMARK WARNING: 32 MAX_TORS EXCEEDED!!!
REMARK  33 active torsions:
REMARK  status: ('A' for Active; 'I' for Inactive)
REMARK    1  A    between atoms: O_2  and  C_13 
REMARK    2  A    between atoms: O_3  and  C_14 
REMARK    3  A    between atoms: O_4  and  C_24 
REMARK    4  A    between atoms: O_5  and  C_31 
REMARK    5  A    between atoms: O_6  and  C_37 
REMARK    6  A    between atoms: C_9  and  C_13 
REMARK    7  A    between atoms: C_10  and  C_14 
REMARK    8  A    between atoms: C_13  and  C_15 
REMARK    9  A    between atoms: C_14  and  C_16 
REMARK   10  A    between atoms: C_15  and  C_17 
REMARK   11  A    between atoms: C_16  and  C_18 
REMARK   12  A    between atoms: C_17  and  C_19 
REMARK   13  A    between atoms: C_18  and  C_20 
REMARK   14  A    between atoms: C_19  and  C_21 
REMARK   15  A    between atoms: C_20  and  C_22 
REMARK   16  A    between atoms: C_21  and  C_23 
REMARK   17  A    between atoms: C_22  and  C_25 
REMARK   18  A    between atoms: C_23  and  C_24 
REMARK   19  A    between atoms: C_24  and  C_26 
REMARK   20  A    between atoms: C_25  and  C_29 
REMARK   21  A    between atoms: C_26  and  C_27 
REMARK   22  A    between atoms: C_27  and  C_28 
REMARK   23  A    between atoms: C_28  and  C_30 
REMARK   24  A    between atoms: C_29  and  C_33 
REMARK   25  A    between atoms: C_30  and  C_31 
REMARK   26  A    between atoms: C_31  and  C_32 
REMARK   27  A    between atoms: C_32  and  C_34 
REMARK   28  A    between atoms: C_33  and  C_36 
REMARK   29  A    between atoms: C_34  and  C_35 
REMARK   30  A    between atoms: C_35  and  C_37 
REMARK   31  A    between atoms: C_36  and  C_39 
REMARK   32  A    between atoms: C_37  and  C_38 
REMARK   33  A    between atoms: C_38  and  C_40 
ROOT
HETATM    1  C   LIG     1       4.640   1.376   4.065  1.00  0.00     0.002 C 
ENDROOT
BRANCH   1   2
HETATM    2  C   LIG     1       4.294   1.207   2.582  1.00  0.00     0.000 C 
BRANCH   2   3
HETATM    3  C   LIG     1       5.316   0.338   1.834  1.00  0.00     0.002 C 
BRANCH   3   4
HETATM    4  C   LIG     1       5.393  -1.081   2.401  1.00  0.00     0.034 C 
BRANCH   4   5
HETATM    5  C   LIG     1       6.328  -2.030   1.652  1.00  0.00     0.147 C 
BRANCH   5   6
HETATM    6  O   LIG     1       6.203  -3.297   2.317  1.00  0.00    -0.393 OA
HETATM    7  H   LIG     1       7.062  -3.747   2.331  1.00  0.00     0.210 HD
ENDBRANCH   5   6
BRANCH   5   8
HETATM    8  C   LIG     1       7.786  -1.536   1.574  1.00  0.00     0.150 C 
HETATM    9  O   LIG     1       8.363  -1.319   2.873  1.00  0.00    -0.376 OA
HETATM   10  C   LIG     1       9.770  -1.662   2.837  1.00  0.00     0.150 C 
HETATM   11  C   LIG     1      10.035  -2.194   1.437  1.00  0.00     0.037 C 
HETATM   12  C   LIG     1       8.695  -2.509   0.850  1.00  0.00     0.037 C 
BRANCH  10  13
HETATM   13  C   LIG     1      10.622  -0.421   3.209  1.00  0.00     0.147 C 
BRANCH  13  14
HETATM   14  O   LIG     1      10.282   0.008   4.543  1.00  0.00    -0.393 OA
HETATM   15  H   LIG     1       9.385   0.392   4.496  1.00  0.00     0.210 HD
ENDBRANCH  13  14
BRANCH  13  16
HETATM   16  C   LIG     1      12.148  -0.627   3.215  1.00  0.00     0.034 C 
BRANCH  16  17
HETATM   17  C   LIG     1      12.860  -1.048   1.916  1.00  0.00     0.002 C 
BRANCH  17  18
HETATM   18  C   LIG     1      12.711  -0.075   0.726  1.00  0.00     0.000 C 
BRANCH  18  19
HETATM   19  C   LIG     1      13.397  -0.606  -0.551  1.00  0.00     0.000 C 
BRANCH  19  20
HETATM   20  C   LIG     1      13.189   0.251  -1.815  1.00  0.00     0.000 C 
BRANCH  20  21
HETATM   21  C   LIG     1      13.793   1.641  -1.666  1.00  0.00     0.000 C 
BRANCH  21  22
HETATM   22  C   LIG     1      13.690   2.484  -2.939  1.00  0.00     0.000 C 
BRANCH  22  23
HETATM   23  C   LIG     1      14.295   3.878  -2.737  1.00  0.00    -0.000 C 
BRANCH  23  24
HETATM   24  C   LIG     1      15.787   3.823  -2.396  1.00  0.00    -0.005 C 
HETATM   25  C   LIG     1      16.373   5.205  -2.183  1.00  0.00     0.005 C 
ENDBRANCH  23  24
ENDBRANCH  22  23
ENDBRANCH  21  22
ENDBRANCH  20  21
ENDBRANCH  19  20
ENDBRANCH  18  19
ENDBRANCH  17  18
ENDBRANCH  16  17
ENDBRANCH  13  16
ENDBRANCH  10  13
ENDBRANCH   5   8
ENDBRANCH   4   5
ENDBRANCH   3   4
ENDBRANCH   2   3
ENDBRANCH   1   2
BRANCH   1  26
HETATM   26  C   LIG     1       3.635   2.255   4.819  1.00  0.00     0.032 C 
BRANCH  26  27
HETATM   27  C   LIG     1       3.971   2.416   6.317  1.00  0.00     0.118 C 
BRANCH  27  28
HETATM   28  O   LIG     1       3.989   1.142   6.953  1.00  0.00    -0.396 OA
HETATM   29  H   LIG     1       3.122   0.726   6.809  1.00  0.00     0.210 HD
ENDBRANCH  27  28
BRANCH  27  30
HETATM   30  C   LIG     1       5.321   3.118   6.528  1.00  0.00     0.032 C 
BRANCH  30  31
HETATM   31  C   LIG     1       5.685   3.340   8.000  1.00  0.00     0.002 C 
BRANCH  31  32
HETATM   32  C   LIG     1       7.060   4.003   8.200  1.00  0.00     0.002 C 
BRANCH  32  33
HETATM   33  C   LIG     1       7.166   5.407   7.597  1.00  0.00     0.032 C 
BRANCH  33  34
HETATM   34  C   LIG     1       8.544   6.074   7.765  1.00  0.00     0.118 C 
BRANCH  34  35
HETATM   35  O   LIG     1       8.460   7.358   7.140  1.00  0.00    -0.396 OA
HETATM   36  H   LIG     1       9.158   7.402   6.464  1.00  0.00     0.210 HD
ENDBRANCH  34  35
BRANCH  34  37
HETATM   37  C   LIG     1       8.992   6.253   9.229  1.00  0.00     0.032 C 
BRANCH  37  38
HETATM   38  C   LIG     1      10.373   6.917   9.351  1.00  0.00     0.005 C 
BRANCH  38  39
HETATM   39  C   LIG     1      10.876   7.206  10.781  1.00  0.00     0.032 C 
BRANCH  39  40
HETATM   40  C   LIG     1      11.085   6.025  11.752  1.00  0.00     0.122 C 
BRANCH  40  41
HETATM   41  O   LIG     1       9.843   5.362  11.990  1.00  0.00    -0.395 OA
HETATM   42  H   LIG     1       9.239   6.003  12.404  1.00  0.00     0.210 HD
ENDBRANCH  40  41
BRANCH  40  43
HETATM   43  C   LIG     1      12.117   4.971  11.310  1.00  0.00     0.076 C 
BRANCH  43  44
HETATM   44  C   LIG     1      13.479   5.513  11.030  1.00  0.00     0.018 A 
HETATM   45  C   LIG     1      13.961   5.998   9.877  1.00  0.00     0.018 A 
HETATM   46  C   LIG     1      15.346   6.471  10.043  1.00  0.00     0.151 A 
HETATM   47  O   LIG     1      15.684   6.089  11.368  1.00  0.00    -0.309 OA
HETATM   48  C   LIG     1      15.458   7.985   9.921  1.00  0.00     0.044 C 
HETATM   49  C   LIG     1      14.578   5.560  11.978  1.00  0.00     0.289 A 
HETATM   50  O   LIG     1      14.526   5.171  13.156  1.00  0.00    -0.260 OA
ENDBRANCH  43  44
ENDBRANCH  40  43
ENDBRANCH  39  40
ENDBRANCH  38  39
ENDBRANCH  37  38
ENDBRANCH  34  37
ENDBRANCH  33  34
ENDBRANCH  32  33
ENDBRANCH  31  32
ENDBRANCH  30  31
ENDBRANCH  27  30
ENDBRANCH  26  27
ENDBRANCH   1  26
TORSDOF 33
