REMARK  31 active torsions:
REMARK  status: ('A' for Active; 'I' for Inactive)
REMARK    1  A    between atoms: O_1  and  C_9 
REMARK    2  A    between atoms: O_2  and  C_12 
REMARK    3  A    between atoms: C_5  and  C_6 
REMARK    4  A    between atoms: C_5  and  C_7 
REMARK    5  A    between atoms: C_6  and  C_8 
REMARK    6  A    between atoms: C_7  and  C_9 
REMARK    7  A    between atoms: C_8  and  C_10 
REMARK    8  A    between atoms: C_9  and  C_12 
REMARK    9  A    between atoms: C_10  and  C_11 
REMARK   10  A    between atoms: C_11  and  C_13 
REMARK   11  A    between atoms: C_12  and  C_15 
REMARK   12  A    between atoms: C_13  and  C_14 
REMARK   13  A    between atoms: C_14  and  C_16 
REMARK   14  A    between atoms: C_15  and  C_23 
REMARK   15  A    between atoms: C_16  and  C_22 
REMARK   16  A    between atoms: C_17  and  C_18 
REMARK   17  A    between atoms: C_17  and  C_19 
REMARK   18  A    between atoms: C_18  and  C_20 
REMARK   19  A    between atoms: C_19  and  C_21 
REMARK   20  A    between atoms: C_20  and  C_24 
REMARK   21  A    between atoms: C_21  and  C_25 
REMARK   22  A    between atoms: C_22  and  C_27 
REMARK   23  A    between atoms: C_23  and  C_30 
REMARK   24  A    between atoms: C_24  and  C_26 
REMARK   25  A    between atoms: C_25  and  C_28 
REMARK   26  A    between atoms: C_26  and  C_29 
REMARK   27  A    between atoms: C_28  and  C_31 
REMARK   28  A    between atoms: C_29  and  C_37 
REMARK   29  A    between atoms: C_35  and  C_36 
REMARK   30  A    between atoms: C_36  and  C_38 
REMARK   31  A    between atoms: C_38  and  C_41 
ROOT
HETATM    1  C   LIG     1       8.611  -4.607   4.993  1.00  0.00     0.147 C 
ENDROOT
BRANCH   1   2
HETATM    2  O   LIG     1       9.100  -3.299   5.326  1.00  0.00    -0.393 OA
HETATM    3  H   LIG     1       9.225  -3.242   6.297  1.00  0.00     0.210 HD
ENDBRANCH   1   2
BRANCH   1   4
HETATM    4  C   LIG     1       9.003  -5.566   6.155  1.00  0.00     0.147 C 
BRANCH   4   5
HETATM    5  O   LIG     1       8.396  -5.133   7.332  1.00  0.00    -0.393 OA
HETATM    6  H   LIG     1       7.910  -4.320   7.222  1.00  0.00     0.210 HD
ENDBRANCH   4   5
BRANCH   4   7
HETATM    7  C   LIG     1      10.481  -5.555   6.554  1.00  0.00     0.034 C 
BRANCH   7   8
HETATM    8  C   LIG     1      10.886  -6.571   7.644  1.00  0.00     0.002 C 
BRANCH   8   9
HETATM    9  C   LIG     1      10.543  -6.191   9.092  1.00  0.00     0.000 C 
BRANCH   9  10
HETATM   10  C   LIG     1       9.078  -6.196   9.565  1.00  0.00     0.000 C 
BRANCH  10  11
HETATM   11  C   LIG     1       8.357  -7.514   9.531  1.00  0.00     0.000 C 
BRANCH  11  12
HETATM   12  C   LIG     1       8.975  -8.613  10.458  1.00  0.00     0.000 C 
BRANCH  12  13
HETATM   13  C   LIG     1       9.370  -8.430  11.975  1.00  0.00     0.000 C 
BRANCH  13  14
HETATM   14  C   LIG     1      10.396  -7.360  12.394  1.00  0.00     0.000 C 
BRANCH  14  15
HETATM   15  C   LIG     1      10.128  -5.847  12.318  1.00  0.00     0.005 C 
BRANCH  15  16
HETATM   16  C   LIG     1       8.807  -5.193  12.863  1.00  0.00     0.043 C 
BRANCH  16  17
HETATM   17  C   LIG     1       7.397  -5.741  12.819  1.00  0.00     0.002 A 
HETATM   18  C   LIG     1       6.823  -6.721  12.145  1.00  0.00     0.017 A 
HETATM   19  C   LIG     1       5.490  -7.133  12.542  1.00  0.00     0.150 A 
HETATM   20  O   LIG     1       5.228  -6.218  13.598  1.00  0.00    -0.319 OA
HETATM   21  C   LIG     1       4.438  -7.053  11.448  1.00  0.00     0.044 C 
HETATM   22  C   LIG     1       6.334  -5.453  13.747  1.00  0.00     0.222 A 
HETATM   23  O   LIG     1       6.452  -4.579  14.704  1.00  0.00    -0.164 OA
ENDBRANCH  16  17
ENDBRANCH  15  16
ENDBRANCH  14  15
ENDBRANCH  13  14
ENDBRANCH  12  13
ENDBRANCH  11  12
ENDBRANCH  10  11
ENDBRANCH   9  10
ENDBRANCH   8   9
ENDBRANCH   7   8
ENDBRANCH   4   7
ENDBRANCH   1   4
BRANCH   1  24
HETATM   24  C   LIG     1       7.092  -4.767   4.567  1.00  0.00     0.038 C 
BRANCH  24  25
HETATM   25  C   LIG     1       6.504  -3.826   3.526  1.00  0.00     0.029 C 
BRANCH  25  26
HETATM   26  C   LIG     1       6.252  -2.399   3.961  1.00  0.00    -0.031 C 
HETATM   27  C   LIG     1       6.351  -1.726   5.131  1.00  0.00    -0.030 C 
BRANCH  27  28
HETATM   28  C   LIG     1       6.832  -2.105   6.508  1.00  0.00     0.030 C 
BRANCH  28  29
HETATM   29  C   LIG     1       6.214  -2.834   7.713  1.00  0.00     0.030 C 
BRANCH  29  30
HETATM   30  C   LIG     1       5.685  -4.246   7.542  1.00  0.00    -0.030 C 
HETATM   31  C   LIG     1       4.619  -4.807   8.100  1.00  0.00    -0.031 C 
BRANCH  31  32
HETATM   32  C   LIG     1       3.680  -4.067   8.953  1.00  0.00     0.027 C 
BRANCH  32  33
HETATM   33  C   LIG     1       3.056  -2.884   8.242  1.00  0.00     0.004 C 
BRANCH  33  34
HETATM   34  C   LIG     1       2.064  -2.197   9.151  1.00  0.00     0.000 C 
BRANCH  34  35
HETATM   35  C   LIG     1       2.581  -1.461  10.409  1.00  0.00     0.000 C 
BRANCH  35  36
HETATM   36  C   LIG     1       3.843  -0.544  10.388  1.00  0.00     0.000 C 
BRANCH  36  37
HETATM   37  C   LIG     1       4.007   0.237  11.685  1.00  0.00     0.000 C 
BRANCH  37  38
HETATM   38  C   LIG     1       2.751   0.981  12.194  1.00  0.00     0.000 C 
BRANCH  38  39
HETATM   39  C   LIG     1       2.166   2.128  11.324  1.00  0.00     0.000 C 
BRANCH  39  40
HETATM   40  C   LIG     1       1.468   1.872   9.951  1.00  0.00     0.000 C 
BRANCH  40  41
HETATM   41  C   LIG     1       2.297   1.310   8.809  1.00  0.00    -0.000 C 
BRANCH  41  42
HETATM   42  C   LIG     1       1.723   0.987   7.451  1.00  0.00    -0.005 C 
HETATM   43  C   LIG     1       2.770   0.290   6.562  1.00  0.00     0.005 C 
ENDBRANCH  41  42
ENDBRANCH  40  41
ENDBRANCH  39  40
ENDBRANCH  38  39
ENDBRANCH  37  38
ENDBRANCH  36  37
ENDBRANCH  35  36
ENDBRANCH  34  35
ENDBRANCH  33  34
ENDBRANCH  32  33
ENDBRANCH  31  32
ENDBRANCH  29  30
ENDBRANCH  28  29
ENDBRANCH  27  28
ENDBRANCH  25  26
ENDBRANCH  24  25
ENDBRANCH   1  24
TORSDOF 31
