REMARK  6 active torsions:
REMARK  status: ('A' for Active; 'I' for Inactive)
REMARK    1  A    between atoms: O_2  and  C_12 
REMARK    2  A    between atoms: O_3  and  C_14 
REMARK    3  A    between atoms: O_5  and  C_16 
REMARK    4  A    between atoms: O_6  and  C_17 
REMARK    5  A    between atoms: O_7  and  C_22 
REMARK    6  A    between atoms: C_9  and  C_11 
ROOT
HETATM    1  O   LIG     1       1.383  -1.236   0.102  1.00  0.00    -0.306 OA
HETATM    2  O   LIG     1       1.150   2.776  -0.489  1.00  0.00    -0.284 OA
HETATM    3  C   LIG     1       0.004   0.754  -0.099  1.00  0.00     0.084 A 
HETATM    4  C   LIG     1       2.528  -0.465  -0.066  1.00  0.00     0.126 A 
HETATM    5  C   LIG     1       0.159  -0.616   0.095  1.00  0.00     0.096 A 
HETATM    6  C   LIG     1       2.513   0.865  -0.272  1.00  0.00     0.152 A 
HETATM    7  C   LIG     1       1.207   1.563  -0.300  1.00  0.00     0.223 A 
HETATM    8  C   LIG     1      -1.274   1.322  -0.101  1.00  0.00     0.085 A 
HETATM    9  C   LIG     1      -0.961  -1.423   0.288  1.00  0.00     0.075 A 
HETATM   10  C   LIG     1      -2.229  -0.847   0.284  1.00  0.00     0.071 A 
HETATM   11  C   LIG     1      -2.397   0.521   0.091  1.00  0.00     0.074 A 
ENDROOT
BRANCH   4  12
HETATM   12  C   LIG     1       3.773  -1.269  -0.027  1.00  0.00     0.034 A 
HETATM   13  C   LIG     1       3.911  -2.475  -0.738  1.00  0.00     0.081 A 
HETATM   14  C   LIG     1       5.089  -3.223  -0.686  1.00  0.00     0.074 A 
HETATM   15  C   LIG     1       6.144  -2.777   0.099  1.00  0.00     0.068 A 
HETATM   16  C   LIG     1       6.035  -1.601   0.828  1.00  0.00     0.037 A 
HETATM   17  C   LIG     1       4.855  -0.853   0.769  1.00  0.00     0.020 A 
BRANCH  13  18
HETATM   18  O   LIG     1       2.919  -2.997  -1.528  1.00  0.00    -0.360 OA
HETATM   19  H   LIG     1       2.106  -2.484  -1.379  1.00  0.00     0.217 HD
ENDBRANCH  13  18
BRANCH  15  20
HETATM   20  O   LIG     1       7.312  -3.473   0.184  1.00  0.00    -0.361 OA
HETATM   21  H   LIG     1       7.246  -4.257  -0.386  1.00  0.00     0.217 HD
ENDBRANCH  15  20
ENDBRANCH   4  12
BRANCH   6  22
HETATM   22  O   LIG     1       3.642   1.634  -0.477  1.00  0.00    -0.355 OA
HETATM   23  H   LIG     1       3.316   2.548  -0.622  1.00  0.00     0.218 HD
ENDBRANCH   6  22
BRANCH   8  24
HETATM   24  O   LIG     1      -1.497   2.660  -0.288  1.00  0.00    -0.360 OA
HETATM   25  H   LIG     1      -0.630   3.107  -0.414  1.00  0.00     0.217 HD
ENDBRANCH   8  24
BRANCH  10  26
HETATM   26  O   LIG     1      -3.297  -1.672   0.475  1.00  0.00    -0.361 OA
HETATM   27  H   LIG     1      -4.114  -1.144   0.456  1.00  0.00     0.217 HD
ENDBRANCH  10  26
TORSDOF 6
